THERMOSTAT CHANGED MANUALY AT : 2018-06-22 14:15:11 UTC