THERMOSTAT CHANGED MANUALY AT : 2018-06-22 16:30:10 UTC