THERMOSTAT CHANGED MANUALY AT : 2018-07-10 18:55:28 UTC