THERMOSTAT CHANGED MANUALY AT : 2018-07-10 20:39:55 UTC