

2018-07-10 15:54:55
MPC Actions: ['1', '1', '1', '1', '1', '1', '1', '1', '1', '1', '1', '1', '1', '1', '1', '1']
Temperatures following the MPC path:
[77.5, 77.35000000000001, 77.2, 77.05000000000001, 76.9, 76.80000000000001, 76.7, 76.60000000000001, 76.5, 76.4, 76.3, 76.2, 76.10000000000001, 76.0, 75.95, 75.9, 75.85000000000001]
Safety Constraints:
[[54.0, 86.0], [54.0, 86.0], [54.0, 86.0], [54.0, 86.0], [54.0, 86.0], [54.0, 86.0], [54.0, 86.0], [54.0, 86.0], [54.0, 86.0], [54.0, 86.0], [54.0, 86.0], [54.0, 86.0], [54.0, 86.0], [54.0, 86.0], [54.0, 86.0], [54.0, 86.0], [54.0, 86.0]]
Prices:
[0.11613, 0.11613, 0.11613, 0.11613, 0.11613, 0.11613, 0.11613, 0.11613, 0.11613, 0.11613, 0.11613, 0.11613, 0.11613, 0.16055, 0.16055, 0.16055, 0.16055]
Occ Predictions:
[0, 0, 0, 0, 0, 0, 0, 0, 0, 0, 0, 0, 0, 1, 1, 1, 1]
Setpoints:
[[54.0, 86.0], [54.0, 86.0], [54.0, 86.0], [54.0, 86.0], [54.0, 86.0], [54.0, 86.0], [54.0, 86.0], [54.0, 86.0], [54.0, 86.0], [54.0, 86.0], [54.0, 86.0], [54.0, 86.0], [54.0, 86.0], [68.0, 74.0], [68.0, 74.0], [68.0, 74.0], [68.0, 74.0]]
Time needed to calculate the shortest path:
2.63171696663
THERMOSTAT CHANGED MANUALY AT : 2018-07-10 16:09:55 UTC