THERMOSTAT CHANGED MANUALY AT : 2018-06-22 16:32:43 UTCTHERMOSTAT CHANGED MANUALY AT : 2018-07-10 18:26:49 UTCTHERMOSTAT CHANGED MANUALY AT : 2018-07-10 21:31:57 UTC
