THERMOSTAT CHANGED MANUALY AT : 2018-06-22 16:32:43 UTC