THERMOSTAT CHANGED MANUALY AT : 2018-06-22 16:32:43 UTC
THERMOSTAT CHANGED MANUALY AT : 2018-07-10 18:26:49 UTC
THERMOSTAT CHANGED MANUALY AT : 2018-07-10 21:31:57 UTC
