THERMOSTAT CHANGED MANUALY AT : 2018-07-10 21:24:54 UTC