THERMOSTAT CHANGED MANUALY AT : 2018-07-11 01:39:55 UTC