

2018-07-09 19:10:12
MPC Actions: ['2', '2', '0', '0', '0', '0', '0', '0', '0', '0', '0', '0', '0', '0', '0', '0']
Temperatures following the MPC path:
[78.0, 77.60000000000001, 77.25, 77.30000000000001, 77.35000000000001, 77.4, 77.45, 77.5, 77.55000000000001, 77.60000000000001, 77.65, 77.7, 77.75, 77.80000000000001, 77.85000000000001, 77.9, 77.95]
Safety Constraints:
[[54.0, 86.0], [54.0, 86.0], [54.0, 86.0], [54.0, 86.0], [54.0, 86.0], [54.0, 86.0], [54.0, 86.0], [54.0, 86.0], [54.0, 86.0], [54.0, 86.0], [54.0, 86.0], [54.0, 86.0], [54.0, 86.0], [54.0, 86.0], [54.0, 86.0], [54.0, 86.0], [54.0, 86.0]]
Prices:
[0.26, 0.26, 0.26, 0.26, 0.26, 0.26, 0.26, 0.26, 0.6, 0.6, 0.6, 0.6, 0.6, 0.6, 0.6, 0.6, 0.6, 0.6, 0.6, 0.6, 0.6, 0.6, 0.6, 0.6, 0.6, 0.6, 0.6, 0.6, 0.6, 0.6, 0.6, 0.6, 0.6, 0.6, 0.6, 0.6, 0.6, 0.6, 0.6, 0.6, 0.6, 0.6, 0.6, 0.6, 0.6, 0.6, 0.6, 0.6, 0.6, 0.6, 0.6, 0.6, 0.6]
Occ Predictions:
                       0
2018-07-09 11:55:12  1.0
2018-07-09 12:10:12  0.8
2018-07-09 12:25:12  0.8
2018-07-09 12:40:12  0.8
2018-07-09 12:55:12  0.8
2018-07-09 13:10:12  0.8
2018-07-09 13:25:12  0.8
2018-07-09 13:40:12  0.8
2018-07-09 13:55:12  0.8
2018-07-09 14:10:12  0.8
2018-07-09 14:25:12  0.8
2018-07-09 14:40:12  0.8
2018-07-09 14:55:12  0.8
2018-07-09 15:10:12  0.8
2018-07-09 15:25:12  0.8
2018-07-09 15:40:12  0.8
2018-07-09 15:55:12  0.8
Setpoints:
[[74.0, 78.0], [74.0, 78.0], [74.0, 78.0], [74.0, 78.0], [74.0, 78.0], [74.0, 78.0], [74.0, 78.0], [74.0, 78.0], [74.0, 78.0], [74.0, 78.0], [74.0, 78.0], [74.0, 78.0], [74.0, 78.0], [74.0, 78.0], [74.0, 78.0], [74.0, 78.0], [74.0, 78.0]]
Time needed to calculate the shortest path:
22.0971770287
THERMOSTAT CHANGED MANUALY AT : 2018-07-09 19:25:12 UTC

2018-07-10 16:21:49
MPC Actions: ['0', '0', '0', '0', '0', '0', '0', '0', '0', '0', '0', '0', '0', '0', '0', '0']
Temperatures following the MPC path:
[77.0, 77.05000000000001, 77.10000000000001, 77.15, 77.2, 77.25, 77.30000000000001, 77.35000000000001, 77.4, 77.45, 77.5, 77.55000000000001, 77.60000000000001, 77.65, 77.7, 77.75, 77.80000000000001]
Safety Constraints:
[[54.0, 86.0], [54.0, 86.0], [54.0, 86.0], [54.0, 86.0], [54.0, 86.0], [54.0, 86.0], [54.0, 86.0], [54.0, 86.0], [54.0, 86.0], [54.0, 86.0], [54.0, 86.0], [54.0, 86.0], [54.0, 86.0], [54.0, 86.0], [54.0, 86.0], [54.0, 86.0], [54.0, 86.0]]
Prices:
[0.24, 0.24, 0.24, 0.24, 0.24, 0.24, 0.24, 0.24, 0.24, 0.24, 0.24, 0.26, 0.26, 0.26, 0.26, 0.26, 0.26]
Occ Predictions:
                       0
2018-07-10 09:06:49  1.0
2018-07-10 09:21:49  0.2
2018-07-10 09:36:49  0.4
2018-07-10 09:51:49  0.4
2018-07-10 10:06:49  0.4
2018-07-10 10:21:49  0.4
2018-07-10 10:36:49  0.4
2018-07-10 10:51:49  0.4
2018-07-10 11:06:49  0.4
2018-07-10 11:21:49  0.4
2018-07-10 11:36:49  0.4
2018-07-10 11:51:49  0.4
2018-07-10 12:06:49  0.4
2018-07-10 12:21:49  0.4
2018-07-10 12:36:49  0.4
2018-07-10 12:51:49  0.4
2018-07-10 13:06:49  0.4
Setpoints:
[[74.0, 78.0], [74.0, 78.0], [74.0, 78.0], [74.0, 78.0], [74.0, 78.0], [74.0, 78.0], [74.0, 78.0], [74.0, 78.0], [74.0, 78.0], [74.0, 78.0], [74.0, 78.0], [74.0, 78.0], [74.0, 78.0], [74.0, 78.0], [74.0, 78.0], [74.0, 78.0], [74.0, 78.0]]
Time needed to calculate the shortest path:
23.0610740185


2018-07-10 16:23:26
MPC Actions: ['0', '0', '0', '0', '0', '0', '0', '0', '0', '0', '0', '0', '0', '0', '0', '0']
Temperatures following the MPC path:
[77.0, 77.05000000000001, 77.10000000000001, 77.15, 77.2, 77.25, 77.30000000000001, 77.35000000000001, 77.4, 77.45, 77.5, 77.55000000000001, 77.60000000000001, 77.65, 77.7, 77.75, 77.80000000000001]
Safety Constraints:
[[54.0, 86.0], [54.0, 86.0], [54.0, 86.0], [54.0, 86.0], [54.0, 86.0], [54.0, 86.0], [54.0, 86.0], [54.0, 86.0], [54.0, 86.0], [54.0, 86.0], [54.0, 86.0], [54.0, 86.0], [54.0, 86.0], [54.0, 86.0], [54.0, 86.0], [54.0, 86.0], [54.0, 86.0]]
Prices:
[0.6, 0.6, 0.6, 0.6, 0.6, 0.6, 0.6, 0.6, 0.6, 0.6, 0.6, 0.6, 0.6, 0.6, 0.6, 0.6, 0.6, 0.6, 0.6, 0.6, 0.6, 0.6, 0.6, 0.6, 0.6, 0.6, 0.6, 0.6, 0.6, 0.6, 0.6, 0.6, 0.6, 0.6, 0.6, 0.6, 0.6, 0.6, 0.6, 0.6, 0.6, 0.6, 0.6, 0.6, 0.6, 0.6, 0.6, 0.6, 0.6, 0.6, 0.6, 0.6, 0.6, 0.6, 0.6, 0.6, 0.6, 0.6, 0.6, 0.6, 0.6, 0.6, 0.6, 0.6, 0.6, 0.6, 0.6, 0.6, 0.6, 0.6, 0.6, 0.6, 0.6, 0.6, 0.6, 0.6, 0.6, 0.6, 0.6, 0.6, 0.6, 0.6, 0.6, 0.6, 0.6]
Occ Predictions:
                       0
2018-07-10 09:08:26  1.0
2018-07-10 09:23:26  0.2
2018-07-10 09:38:26  0.4
2018-07-10 09:53:26  0.4
2018-07-10 10:08:26  0.4
2018-07-10 10:23:26  0.4
2018-07-10 10:38:26  0.4
2018-07-10 10:53:26  0.4
2018-07-10 11:08:26  0.4
2018-07-10 11:23:26  0.4
2018-07-10 11:38:26  0.4
2018-07-10 11:53:26  0.4
2018-07-10 12:08:26  0.4
2018-07-10 12:23:26  0.4
2018-07-10 12:38:26  0.4
2018-07-10 12:53:26  0.4
2018-07-10 13:08:26  0.4
Setpoints:
[[74.0, 78.0], [74.0, 78.0], [74.0, 78.0], [74.0, 78.0], [74.0, 78.0], [74.0, 78.0], [74.0, 78.0], [74.0, 78.0], [74.0, 78.0], [74.0, 78.0], [74.0, 78.0], [74.0, 78.0], [74.0, 78.0], [74.0, 78.0], [74.0, 78.0], [74.0, 78.0], [74.0, 78.0]]
Time needed to calculate the shortest path:
22.29809618


2018-07-10 16:25:15
MPC Actions: ['0', '0', '0', '0', '0', '0', '0', '0', '0', '0', '0', '0', '0', '0', '0', '0']
Temperatures following the MPC path:
[77.0, 77.05000000000001, 77.10000000000001, 77.15, 77.2, 77.25, 77.30000000000001, 77.35000000000001, 77.4, 77.45, 77.5, 77.55000000000001, 77.60000000000001, 77.65, 77.7, 77.75, 77.80000000000001]
Safety Constraints:
[[54.0, 86.0], [54.0, 86.0], [54.0, 86.0], [54.0, 86.0], [54.0, 86.0], [54.0, 86.0], [54.0, 86.0], [54.0, 86.0], [54.0, 86.0], [54.0, 86.0], [54.0, 86.0], [54.0, 86.0], [54.0, 86.0], [54.0, 86.0], [54.0, 86.0], [54.0, 86.0], [54.0, 86.0]]
Prices:
[0.6, 0.6, 0.6, 0.6, 0.6, 0.6, 0.6, 0.6, 0.6, 0.6, 0.6, 0.6, 0.6, 0.6, 0.6, 0.6, 0.6, 0.6, 0.6, 0.6, 0.6, 0.6, 0.6, 0.6, 0.6, 0.6, 0.6, 0.6, 0.6, 0.6, 0.6, 0.6, 0.6, 0.6, 0.6, 0.6, 0.6, 0.6, 0.6, 0.6, 0.6, 0.6, 0.6, 0.6, 0.6, 0.6, 0.6, 0.6, 0.6, 0.6, 0.6, 0.6, 0.6, 0.6, 0.6, 0.6, 0.6, 0.6, 0.6, 0.6, 0.6, 0.6, 0.6, 0.6, 0.6, 0.6, 0.6, 0.6, 0.6, 0.6, 0.6, 0.6, 0.6, 0.6, 0.6, 0.6, 0.6, 0.6, 0.6, 0.6, 0.6, 0.6, 0.6, 0.6, 0.6]
Occ Predictions:
                       0
2018-07-10 09:10:15  1.0
2018-07-10 09:25:15  0.4
2018-07-10 09:40:15  0.4
2018-07-10 09:55:15  0.4
2018-07-10 10:10:15  0.4
2018-07-10 10:25:15  0.4
2018-07-10 10:40:15  0.4
2018-07-10 10:55:15  0.4
2018-07-10 11:10:15  0.4
2018-07-10 11:25:15  0.4
2018-07-10 11:40:15  0.4
2018-07-10 11:55:15  0.4
2018-07-10 12:10:15  0.4
2018-07-10 12:25:15  0.4
2018-07-10 12:40:15  0.4
2018-07-10 12:55:15  0.4
2018-07-10 13:10:15  0.4
Setpoints:
[[74.0, 78.0], [74.0, 78.0], [74.0, 78.0], [74.0, 78.0], [74.0, 78.0], [74.0, 78.0], [74.0, 78.0], [74.0, 78.0], [74.0, 78.0], [74.0, 78.0], [74.0, 78.0], [74.0, 78.0], [74.0, 78.0], [74.0, 78.0], [74.0, 78.0], [74.0, 78.0], [74.0, 78.0]]
Time needed to calculate the shortest path:
22.5140020847


2018-07-10 16:26:30
MPC Actions: ['0', '0', '0', '0', '0', '0', '0', '0', '0', '0', '0', '0', '0', '0', '0', '0']
Temperatures following the MPC path:
[77.0, 77.05000000000001, 77.10000000000001, 77.15, 77.2, 77.25, 77.30000000000001, 77.35000000000001, 77.4, 77.45, 77.5, 77.55000000000001, 77.60000000000001, 77.65, 77.7, 77.75, 77.80000000000001]
Safety Constraints:
[[54.0, 86.0], [54.0, 86.0], [54.0, 86.0], [54.0, 86.0], [54.0, 86.0], [54.0, 86.0], [54.0, 86.0], [54.0, 86.0], [54.0, 86.0], [54.0, 86.0], [54.0, 86.0], [54.0, 86.0], [54.0, 86.0], [54.0, 86.0], [54.0, 86.0], [54.0, 86.0], [54.0, 86.0]]
Prices:
[0.6, 0.6, 0.6, 0.6, 0.6, 0.6, 0.6, 0.6, 0.6, 0.6, 0.6, 0.6, 0.6, 0.6, 0.6, 0.6, 0.6, 0.6, 0.6, 0.6, 0.6, 0.6, 0.6, 0.6, 0.6, 0.6, 0.6, 0.6, 0.6, 0.6, 0.6, 0.6, 0.6, 0.6, 0.6, 0.6, 0.6, 0.6, 0.6, 0.6, 0.6, 0.6, 0.6, 0.6, 0.6, 0.6, 0.6, 0.6, 0.6, 0.6, 0.6, 0.6, 0.6, 0.6, 0.6, 0.6, 0.6, 0.6, 0.6, 0.6, 0.6, 0.6, 0.6, 0.6, 0.6, 0.6, 0.6, 0.6, 0.6, 0.6, 0.6, 0.6, 0.6, 0.6, 0.6, 0.6, 0.6, 0.6, 0.6, 0.6, 0.6, 0.6, 0.6, 0.6, 0.6]
Occ Predictions:
                       0
2018-07-10 09:11:30  1.0
2018-07-10 09:26:30  0.4
2018-07-10 09:41:30  0.4
2018-07-10 09:56:30  0.4
2018-07-10 10:11:30  0.4
2018-07-10 10:26:30  0.4
2018-07-10 10:41:30  0.4
2018-07-10 10:56:30  0.4
2018-07-10 11:11:30  0.4
2018-07-10 11:26:30  0.4
2018-07-10 11:41:30  0.4
2018-07-10 11:56:30  0.4
2018-07-10 12:11:30  0.4
2018-07-10 12:26:30  0.4
2018-07-10 12:41:30  0.4
2018-07-10 12:56:30  0.4
2018-07-10 13:11:30  0.4
Setpoints:
[[74.0, 78.0], [74.0, 78.0], [74.0, 78.0], [74.0, 78.0], [74.0, 78.0], [74.0, 78.0], [74.0, 78.0], [74.0, 78.0], [74.0, 78.0], [74.0, 78.0], [74.0, 78.0], [74.0, 78.0], [74.0, 78.0], [74.0, 78.0], [74.0, 78.0], [74.0, 78.0], [74.0, 78.0]]
Time needed to calculate the shortest path:
19.4862771034


2018-07-10 16:27:13
MPC Actions: ['0', '0', '0', '0', '0', '0', '0', '0', '0', '0', '0', '0', '0', '0', '0', '0']
Temperatures following the MPC path:
[77.0, 77.05000000000001, 77.10000000000001, 77.15, 77.2, 77.25, 77.30000000000001, 77.35000000000001, 77.4, 77.45, 77.5, 77.55000000000001, 77.60000000000001, 77.65, 77.7, 77.75, 77.80000000000001]
Safety Constraints:
[[54.0, 86.0], [54.0, 86.0], [54.0, 86.0], [54.0, 86.0], [54.0, 86.0], [54.0, 86.0], [54.0, 86.0], [54.0, 86.0], [54.0, 86.0], [54.0, 86.0], [54.0, 86.0], [54.0, 86.0], [54.0, 86.0], [54.0, 86.0], [54.0, 86.0], [54.0, 86.0], [54.0, 86.0]]
Prices:
[0.6, 0.6, 0.6, 0.6, 0.6, 0.6, 0.6, 0.6, 0.6, 0.6, 0.6, 0.6, 0.6, 0.6, 0.6, 0.6, 0.6, 0.6, 0.6, 0.6, 0.6, 0.6, 0.6, 0.6, 0.6, 0.6, 0.6, 0.6, 0.6, 0.6, 0.6, 0.6, 0.6, 0.6, 0.6, 0.6, 0.6, 0.6, 0.6, 0.6, 0.6, 0.6, 0.6, 0.6, 0.6, 0.6, 0.6, 0.6, 0.6, 0.6, 0.6, 0.6, 0.6, 0.6, 0.6, 0.6, 0.6, 0.6, 0.6, 0.6, 0.6, 0.6, 0.6, 0.6, 0.6, 0.6, 0.6, 0.6, 0.6, 0.6, 0.6, 0.6, 0.6, 0.6, 0.6, 0.6, 0.6, 0.6, 0.6, 0.6, 0.6, 0.6, 0.6, 0.6, 0.6]
Occ Predictions:
                       0
2018-07-10 09:12:13  1.0
2018-07-10 09:27:13  0.4
2018-07-10 09:42:13  0.4
2018-07-10 09:57:13  0.4
2018-07-10 10:12:13  0.4
2018-07-10 10:27:13  0.4
2018-07-10 10:42:13  0.4
2018-07-10 10:57:13  0.4
2018-07-10 11:12:13  0.4
2018-07-10 11:27:13  0.4
2018-07-10 11:42:13  0.4
2018-07-10 11:57:13  0.4
2018-07-10 12:12:13  0.4
2018-07-10 12:27:13  0.4
2018-07-10 12:42:13  0.4
2018-07-10 12:57:13  0.4
2018-07-10 13:12:13  0.4
Setpoints:
[[74.0, 78.0], [74.0, 78.0], [74.0, 78.0], [74.0, 78.0], [74.0, 78.0], [74.0, 78.0], [74.0, 78.0], [74.0, 78.0], [74.0, 78.0], [74.0, 78.0], [74.0, 78.0], [74.0, 78.0], [74.0, 78.0], [74.0, 78.0], [74.0, 78.0], [74.0, 78.0], [74.0, 78.0]]
Time needed to calculate the shortest path:
19.7043399811


2018-07-10 16:29:40
MPC Actions: ['0', '0', '0', '0', '0', '0', '0', '0', '0', '0', '0', '0', '0', '0', '0', '0']
Temperatures following the MPC path:
[77.0, 77.05000000000001, 77.10000000000001, 77.15, 77.2, 77.25, 77.30000000000001, 77.35000000000001, 77.4, 77.45, 77.5, 77.55000000000001, 77.60000000000001, 77.65, 77.7, 77.75, 77.80000000000001]
Safety Constraints:
[[54.0, 86.0], [54.0, 86.0], [54.0, 86.0], [54.0, 86.0], [54.0, 86.0], [54.0, 86.0], [54.0, 86.0], [54.0, 86.0], [54.0, 86.0], [54.0, 86.0], [54.0, 86.0], [54.0, 86.0], [54.0, 86.0], [54.0, 86.0], [54.0, 86.0], [54.0, 86.0], [54.0, 86.0]]
Prices:
[0.6, 0.6, 0.6, 0.6, 0.6, 0.6, 0.6, 0.6, 0.6, 0.6, 0.6, 0.6, 0.6, 0.6, 0.6, 0.6, 0.6, 0.6, 0.6, 0.6, 0.6, 0.6, 0.6, 0.6, 0.6, 0.6, 0.6, 0.6, 0.6, 0.6, 0.6, 0.6, 0.6, 0.6, 0.6, 0.6, 0.6, 0.6, 0.6, 0.6, 0.6, 0.6, 0.6, 0.6, 0.6, 0.6, 0.6, 0.6, 0.6, 0.6, 0.6, 0.6, 0.6, 0.6, 0.6, 0.6, 0.6, 0.6, 0.6, 0.6, 0.6, 0.6, 0.6, 0.6, 0.6, 0.6, 0.6, 0.6, 0.6, 0.6, 0.6, 0.6, 0.6, 0.6, 0.6, 0.6, 0.6, 0.6, 0.6, 0.6, 0.6, 0.6, 0.6, 0.6, 0.6]
Occ Predictions:
                       0
2018-07-10 09:14:40  1.0
2018-07-10 09:29:40  0.4
2018-07-10 09:44:40  0.4
2018-07-10 09:59:40  0.4
2018-07-10 10:14:40  0.4
2018-07-10 10:29:40  0.4
2018-07-10 10:44:40  0.4
2018-07-10 10:59:40  0.4
2018-07-10 11:14:40  0.4
2018-07-10 11:29:40  0.4
2018-07-10 11:44:40  0.4
2018-07-10 11:59:40  0.4
2018-07-10 12:14:40  0.4
2018-07-10 12:29:40  0.4
2018-07-10 12:44:40  0.4
2018-07-10 12:59:40  0.4
2018-07-10 13:14:40  0.4
Setpoints:
[[74.0, 78.0], [74.0, 78.0], [74.0, 78.0], [74.0, 78.0], [74.0, 78.0], [74.0, 78.0], [74.0, 78.0], [74.0, 78.0], [74.0, 78.0], [74.0, 78.0], [74.0, 78.0], [74.0, 78.0], [74.0, 78.0], [74.0, 78.0], [74.0, 78.0], [74.0, 78.0], [74.0, 78.0]]
Time needed to calculate the shortest path:
18.4007878304
