

2018-07-09 19:10:12
MPC Actions: ['2', '2', '0', '0', '0', '0', '0', '0', '0', '0', '0', '0', '0', '0', '0', '0']
Temperatures following the MPC path:
[78.0, 77.60000000000001, 77.25, 77.30000000000001, 77.35000000000001, 77.4, 77.45, 77.5, 77.55000000000001, 77.60000000000001, 77.65, 77.7, 77.75, 77.80000000000001, 77.85000000000001, 77.9, 77.95]
Safety Constraints:
[[54.0, 86.0], [54.0, 86.0], [54.0, 86.0], [54.0, 86.0], [54.0, 86.0], [54.0, 86.0], [54.0, 86.0], [54.0, 86.0], [54.0, 86.0], [54.0, 86.0], [54.0, 86.0], [54.0, 86.0], [54.0, 86.0], [54.0, 86.0], [54.0, 86.0], [54.0, 86.0], [54.0, 86.0]]
Prices:
[0.26, 0.26, 0.26, 0.26, 0.26, 0.26, 0.26, 0.26, 0.6, 0.6, 0.6, 0.6, 0.6, 0.6, 0.6, 0.6, 0.6, 0.6, 0.6, 0.6, 0.6, 0.6, 0.6, 0.6, 0.6, 0.6, 0.6, 0.6, 0.6, 0.6, 0.6, 0.6, 0.6, 0.6, 0.6, 0.6, 0.6, 0.6, 0.6, 0.6, 0.6, 0.6, 0.6, 0.6, 0.6, 0.6, 0.6, 0.6, 0.6, 0.6, 0.6, 0.6, 0.6]
Occ Predictions:
                       0
2018-07-09 11:55:12  1.0
2018-07-09 12:10:12  0.8
2018-07-09 12:25:12  0.8
2018-07-09 12:40:12  0.8
2018-07-09 12:55:12  0.8
2018-07-09 13:10:12  0.8
2018-07-09 13:25:12  0.8
2018-07-09 13:40:12  0.8
2018-07-09 13:55:12  0.8
2018-07-09 14:10:12  0.8
2018-07-09 14:25:12  0.8
2018-07-09 14:40:12  0.8
2018-07-09 14:55:12  0.8
2018-07-09 15:10:12  0.8
2018-07-09 15:25:12  0.8
2018-07-09 15:40:12  0.8
2018-07-09 15:55:12  0.8
Setpoints:
[[74.0, 78.0], [74.0, 78.0], [74.0, 78.0], [74.0, 78.0], [74.0, 78.0], [74.0, 78.0], [74.0, 78.0], [74.0, 78.0], [74.0, 78.0], [74.0, 78.0], [74.0, 78.0], [74.0, 78.0], [74.0, 78.0], [74.0, 78.0], [74.0, 78.0], [74.0, 78.0], [74.0, 78.0]]
Time needed to calculate the shortest path:
22.0971770287
THERMOSTAT CHANGED MANUALY AT : 2018-07-09 19:25:12 UTC

2018-07-10 16:21:49
MPC Actions: ['0', '0', '0', '0', '0', '0', '0', '0', '0', '0', '0', '0', '0', '0', '0', '0']
Temperatures following the MPC path:
[77.0, 77.05000000000001, 77.10000000000001, 77.15, 77.2, 77.25, 77.30000000000001, 77.35000000000001, 77.4, 77.45, 77.5, 77.55000000000001, 77.60000000000001, 77.65, 77.7, 77.75, 77.80000000000001]
Safety Constraints:
[[54.0, 86.0], [54.0, 86.0], [54.0, 86.0], [54.0, 86.0], [54.0, 86.0], [54.0, 86.0], [54.0, 86.0], [54.0, 86.0], [54.0, 86.0], [54.0, 86.0], [54.0, 86.0], [54.0, 86.0], [54.0, 86.0], [54.0, 86.0], [54.0, 86.0], [54.0, 86.0], [54.0, 86.0]]
Prices:
[0.24, 0.24, 0.24, 0.24, 0.24, 0.24, 0.24, 0.24, 0.24, 0.24, 0.24, 0.26, 0.26, 0.26, 0.26, 0.26, 0.26]
Occ Predictions:
                       0
2018-07-10 09:06:49  1.0
2018-07-10 09:21:49  0.2
2018-07-10 09:36:49  0.4
2018-07-10 09:51:49  0.4
2018-07-10 10:06:49  0.4
2018-07-10 10:21:49  0.4
2018-07-10 10:36:49  0.4
2018-07-10 10:51:49  0.4
2018-07-10 11:06:49  0.4
2018-07-10 11:21:49  0.4
2018-07-10 11:36:49  0.4
2018-07-10 11:51:49  0.4
2018-07-10 12:06:49  0.4
2018-07-10 12:21:49  0.4
2018-07-10 12:36:49  0.4
2018-07-10 12:51:49  0.4
2018-07-10 13:06:49  0.4
Setpoints:
[[74.0, 78.0], [74.0, 78.0], [74.0, 78.0], [74.0, 78.0], [74.0, 78.0], [74.0, 78.0], [74.0, 78.0], [74.0, 78.0], [74.0, 78.0], [74.0, 78.0], [74.0, 78.0], [74.0, 78.0], [74.0, 78.0], [74.0, 78.0], [74.0, 78.0], [74.0, 78.0], [74.0, 78.0]]
Time needed to calculate the shortest path:
23.0610740185


2018-07-10 16:23:26
MPC Actions: ['0', '0', '0', '0', '0', '0', '0', '0', '0', '0', '0', '0', '0', '0', '0', '0']
Temperatures following the MPC path:
[77.0, 77.05000000000001, 77.10000000000001, 77.15, 77.2, 77.25, 77.30000000000001, 77.35000000000001, 77.4, 77.45, 77.5, 77.55000000000001, 77.60000000000001, 77.65, 77.7, 77.75, 77.80000000000001]
Safety Constraints:
[[54.0, 86.0], [54.0, 86.0], [54.0, 86.0], [54.0, 86.0], [54.0, 86.0], [54.0, 86.0], [54.0, 86.0], [54.0, 86.0], [54.0, 86.0], [54.0, 86.0], [54.0, 86.0], [54.0, 86.0], [54.0, 86.0], [54.0, 86.0], [54.0, 86.0], [54.0, 86.0], [54.0, 86.0]]
Prices:
[0.6, 0.6, 0.6, 0.6, 0.6, 0.6, 0.6, 0.6, 0.6, 0.6, 0.6, 0.6, 0.6, 0.6, 0.6, 0.6, 0.6, 0.6, 0.6, 0.6, 0.6, 0.6, 0.6, 0.6, 0.6, 0.6, 0.6, 0.6, 0.6, 0.6, 0.6, 0.6, 0.6, 0.6, 0.6, 0.6, 0.6, 0.6, 0.6, 0.6, 0.6, 0.6, 0.6, 0.6, 0.6, 0.6, 0.6, 0.6, 0.6, 0.6, 0.6, 0.6, 0.6, 0.6, 0.6, 0.6, 0.6, 0.6, 0.6, 0.6, 0.6, 0.6, 0.6, 0.6, 0.6, 0.6, 0.6, 0.6, 0.6, 0.6, 0.6, 0.6, 0.6, 0.6, 0.6, 0.6, 0.6, 0.6, 0.6, 0.6, 0.6, 0.6, 0.6, 0.6, 0.6]
Occ Predictions:
                       0
2018-07-10 09:08:26  1.0
2018-07-10 09:23:26  0.2
2018-07-10 09:38:26  0.4
2018-07-10 09:53:26  0.4
2018-07-10 10:08:26  0.4
2018-07-10 10:23:26  0.4
2018-07-10 10:38:26  0.4
2018-07-10 10:53:26  0.4
2018-07-10 11:08:26  0.4
2018-07-10 11:23:26  0.4
2018-07-10 11:38:26  0.4
2018-07-10 11:53:26  0.4
2018-07-10 12:08:26  0.4
2018-07-10 12:23:26  0.4
2018-07-10 12:38:26  0.4
2018-07-10 12:53:26  0.4
2018-07-10 13:08:26  0.4
Setpoints:
[[74.0, 78.0], [74.0, 78.0], [74.0, 78.0], [74.0, 78.0], [74.0, 78.0], [74.0, 78.0], [74.0, 78.0], [74.0, 78.0], [74.0, 78.0], [74.0, 78.0], [74.0, 78.0], [74.0, 78.0], [74.0, 78.0], [74.0, 78.0], [74.0, 78.0], [74.0, 78.0], [74.0, 78.0]]
Time needed to calculate the shortest path:
22.29809618


2018-07-10 16:25:15
MPC Actions: ['0', '0', '0', '0', '0', '0', '0', '0', '0', '0', '0', '0', '0', '0', '0', '0']
Temperatures following the MPC path:
[77.0, 77.05000000000001, 77.10000000000001, 77.15, 77.2, 77.25, 77.30000000000001, 77.35000000000001, 77.4, 77.45, 77.5, 77.55000000000001, 77.60000000000001, 77.65, 77.7, 77.75, 77.80000000000001]
Safety Constraints:
[[54.0, 86.0], [54.0, 86.0], [54.0, 86.0], [54.0, 86.0], [54.0, 86.0], [54.0, 86.0], [54.0, 86.0], [54.0, 86.0], [54.0, 86.0], [54.0, 86.0], [54.0, 86.0], [54.0, 86.0], [54.0, 86.0], [54.0, 86.0], [54.0, 86.0], [54.0, 86.0], [54.0, 86.0]]
Prices:
[0.6, 0.6, 0.6, 0.6, 0.6, 0.6, 0.6, 0.6, 0.6, 0.6, 0.6, 0.6, 0.6, 0.6, 0.6, 0.6, 0.6, 0.6, 0.6, 0.6, 0.6, 0.6, 0.6, 0.6, 0.6, 0.6, 0.6, 0.6, 0.6, 0.6, 0.6, 0.6, 0.6, 0.6, 0.6, 0.6, 0.6, 0.6, 0.6, 0.6, 0.6, 0.6, 0.6, 0.6, 0.6, 0.6, 0.6, 0.6, 0.6, 0.6, 0.6, 0.6, 0.6, 0.6, 0.6, 0.6, 0.6, 0.6, 0.6, 0.6, 0.6, 0.6, 0.6, 0.6, 0.6, 0.6, 0.6, 0.6, 0.6, 0.6, 0.6, 0.6, 0.6, 0.6, 0.6, 0.6, 0.6, 0.6, 0.6, 0.6, 0.6, 0.6, 0.6, 0.6, 0.6]
Occ Predictions:
                       0
2018-07-10 09:10:15  1.0
2018-07-10 09:25:15  0.4
2018-07-10 09:40:15  0.4
2018-07-10 09:55:15  0.4
2018-07-10 10:10:15  0.4
2018-07-10 10:25:15  0.4
2018-07-10 10:40:15  0.4
2018-07-10 10:55:15  0.4
2018-07-10 11:10:15  0.4
2018-07-10 11:25:15  0.4
2018-07-10 11:40:15  0.4
2018-07-10 11:55:15  0.4
2018-07-10 12:10:15  0.4
2018-07-10 12:25:15  0.4
2018-07-10 12:40:15  0.4
2018-07-10 12:55:15  0.4
2018-07-10 13:10:15  0.4
Setpoints:
[[74.0, 78.0], [74.0, 78.0], [74.0, 78.0], [74.0, 78.0], [74.0, 78.0], [74.0, 78.0], [74.0, 78.0], [74.0, 78.0], [74.0, 78.0], [74.0, 78.0], [74.0, 78.0], [74.0, 78.0], [74.0, 78.0], [74.0, 78.0], [74.0, 78.0], [74.0, 78.0], [74.0, 78.0]]
Time needed to calculate the shortest path:
22.5140020847


2018-07-10 16:26:30
MPC Actions: ['0', '0', '0', '0', '0', '0', '0', '0', '0', '0', '0', '0', '0', '0', '0', '0']
Temperatures following the MPC path:
[77.0, 77.05000000000001, 77.10000000000001, 77.15, 77.2, 77.25, 77.30000000000001, 77.35000000000001, 77.4, 77.45, 77.5, 77.55000000000001, 77.60000000000001, 77.65, 77.7, 77.75, 77.80000000000001]
Safety Constraints:
[[54.0, 86.0], [54.0, 86.0], [54.0, 86.0], [54.0, 86.0], [54.0, 86.0], [54.0, 86.0], [54.0, 86.0], [54.0, 86.0], [54.0, 86.0], [54.0, 86.0], [54.0, 86.0], [54.0, 86.0], [54.0, 86.0], [54.0, 86.0], [54.0, 86.0], [54.0, 86.0], [54.0, 86.0]]
Prices:
[0.6, 0.6, 0.6, 0.6, 0.6, 0.6, 0.6, 0.6, 0.6, 0.6, 0.6, 0.6, 0.6, 0.6, 0.6, 0.6, 0.6, 0.6, 0.6, 0.6, 0.6, 0.6, 0.6, 0.6, 0.6, 0.6, 0.6, 0.6, 0.6, 0.6, 0.6, 0.6, 0.6, 0.6, 0.6, 0.6, 0.6, 0.6, 0.6, 0.6, 0.6, 0.6, 0.6, 0.6, 0.6, 0.6, 0.6, 0.6, 0.6, 0.6, 0.6, 0.6, 0.6, 0.6, 0.6, 0.6, 0.6, 0.6, 0.6, 0.6, 0.6, 0.6, 0.6, 0.6, 0.6, 0.6, 0.6, 0.6, 0.6, 0.6, 0.6, 0.6, 0.6, 0.6, 0.6, 0.6, 0.6, 0.6, 0.6, 0.6, 0.6, 0.6, 0.6, 0.6, 0.6]
Occ Predictions:
                       0
2018-07-10 09:11:30  1.0
2018-07-10 09:26:30  0.4
2018-07-10 09:41:30  0.4
2018-07-10 09:56:30  0.4
2018-07-10 10:11:30  0.4
2018-07-10 10:26:30  0.4
2018-07-10 10:41:30  0.4
2018-07-10 10:56:30  0.4
2018-07-10 11:11:30  0.4
2018-07-10 11:26:30  0.4
2018-07-10 11:41:30  0.4
2018-07-10 11:56:30  0.4
2018-07-10 12:11:30  0.4
2018-07-10 12:26:30  0.4
2018-07-10 12:41:30  0.4
2018-07-10 12:56:30  0.4
2018-07-10 13:11:30  0.4
Setpoints:
[[74.0, 78.0], [74.0, 78.0], [74.0, 78.0], [74.0, 78.0], [74.0, 78.0], [74.0, 78.0], [74.0, 78.0], [74.0, 78.0], [74.0, 78.0], [74.0, 78.0], [74.0, 78.0], [74.0, 78.0], [74.0, 78.0], [74.0, 78.0], [74.0, 78.0], [74.0, 78.0], [74.0, 78.0]]
Time needed to calculate the shortest path:
19.4862771034


2018-07-10 16:27:13
MPC Actions: ['0', '0', '0', '0', '0', '0', '0', '0', '0', '0', '0', '0', '0', '0', '0', '0']
Temperatures following the MPC path:
[77.0, 77.05000000000001, 77.10000000000001, 77.15, 77.2, 77.25, 77.30000000000001, 77.35000000000001, 77.4, 77.45, 77.5, 77.55000000000001, 77.60000000000001, 77.65, 77.7, 77.75, 77.80000000000001]
Safety Constraints:
[[54.0, 86.0], [54.0, 86.0], [54.0, 86.0], [54.0, 86.0], [54.0, 86.0], [54.0, 86.0], [54.0, 86.0], [54.0, 86.0], [54.0, 86.0], [54.0, 86.0], [54.0, 86.0], [54.0, 86.0], [54.0, 86.0], [54.0, 86.0], [54.0, 86.0], [54.0, 86.0], [54.0, 86.0]]
Prices:
[0.6, 0.6, 0.6, 0.6, 0.6, 0.6, 0.6, 0.6, 0.6, 0.6, 0.6, 0.6, 0.6, 0.6, 0.6, 0.6, 0.6, 0.6, 0.6, 0.6, 0.6, 0.6, 0.6, 0.6, 0.6, 0.6, 0.6, 0.6, 0.6, 0.6, 0.6, 0.6, 0.6, 0.6, 0.6, 0.6, 0.6, 0.6, 0.6, 0.6, 0.6, 0.6, 0.6, 0.6, 0.6, 0.6, 0.6, 0.6, 0.6, 0.6, 0.6, 0.6, 0.6, 0.6, 0.6, 0.6, 0.6, 0.6, 0.6, 0.6, 0.6, 0.6, 0.6, 0.6, 0.6, 0.6, 0.6, 0.6, 0.6, 0.6, 0.6, 0.6, 0.6, 0.6, 0.6, 0.6, 0.6, 0.6, 0.6, 0.6, 0.6, 0.6, 0.6, 0.6, 0.6]
Occ Predictions:
                       0
2018-07-10 09:12:13  1.0
2018-07-10 09:27:13  0.4
2018-07-10 09:42:13  0.4
2018-07-10 09:57:13  0.4
2018-07-10 10:12:13  0.4
2018-07-10 10:27:13  0.4
2018-07-10 10:42:13  0.4
2018-07-10 10:57:13  0.4
2018-07-10 11:12:13  0.4
2018-07-10 11:27:13  0.4
2018-07-10 11:42:13  0.4
2018-07-10 11:57:13  0.4
2018-07-10 12:12:13  0.4
2018-07-10 12:27:13  0.4
2018-07-10 12:42:13  0.4
2018-07-10 12:57:13  0.4
2018-07-10 13:12:13  0.4
Setpoints:
[[74.0, 78.0], [74.0, 78.0], [74.0, 78.0], [74.0, 78.0], [74.0, 78.0], [74.0, 78.0], [74.0, 78.0], [74.0, 78.0], [74.0, 78.0], [74.0, 78.0], [74.0, 78.0], [74.0, 78.0], [74.0, 78.0], [74.0, 78.0], [74.0, 78.0], [74.0, 78.0], [74.0, 78.0]]
Time needed to calculate the shortest path:
19.7043399811


2018-07-10 16:29:40
MPC Actions: ['0', '0', '0', '0', '0', '0', '0', '0', '0', '0', '0', '0', '0', '0', '0', '0']
Temperatures following the MPC path:
[77.0, 77.05000000000001, 77.10000000000001, 77.15, 77.2, 77.25, 77.30000000000001, 77.35000000000001, 77.4, 77.45, 77.5, 77.55000000000001, 77.60000000000001, 77.65, 77.7, 77.75, 77.80000000000001]
Safety Constraints:
[[54.0, 86.0], [54.0, 86.0], [54.0, 86.0], [54.0, 86.0], [54.0, 86.0], [54.0, 86.0], [54.0, 86.0], [54.0, 86.0], [54.0, 86.0], [54.0, 86.0], [54.0, 86.0], [54.0, 86.0], [54.0, 86.0], [54.0, 86.0], [54.0, 86.0], [54.0, 86.0], [54.0, 86.0]]
Prices:
[0.6, 0.6, 0.6, 0.6, 0.6, 0.6, 0.6, 0.6, 0.6, 0.6, 0.6, 0.6, 0.6, 0.6, 0.6, 0.6, 0.6, 0.6, 0.6, 0.6, 0.6, 0.6, 0.6, 0.6, 0.6, 0.6, 0.6, 0.6, 0.6, 0.6, 0.6, 0.6, 0.6, 0.6, 0.6, 0.6, 0.6, 0.6, 0.6, 0.6, 0.6, 0.6, 0.6, 0.6, 0.6, 0.6, 0.6, 0.6, 0.6, 0.6, 0.6, 0.6, 0.6, 0.6, 0.6, 0.6, 0.6, 0.6, 0.6, 0.6, 0.6, 0.6, 0.6, 0.6, 0.6, 0.6, 0.6, 0.6, 0.6, 0.6, 0.6, 0.6, 0.6, 0.6, 0.6, 0.6, 0.6, 0.6, 0.6, 0.6, 0.6, 0.6, 0.6, 0.6, 0.6]
Occ Predictions:
                       0
2018-07-10 09:14:40  1.0
2018-07-10 09:29:40  0.4
2018-07-10 09:44:40  0.4
2018-07-10 09:59:40  0.4
2018-07-10 10:14:40  0.4
2018-07-10 10:29:40  0.4
2018-07-10 10:44:40  0.4
2018-07-10 10:59:40  0.4
2018-07-10 11:14:40  0.4
2018-07-10 11:29:40  0.4
2018-07-10 11:44:40  0.4
2018-07-10 11:59:40  0.4
2018-07-10 12:14:40  0.4
2018-07-10 12:29:40  0.4
2018-07-10 12:44:40  0.4
2018-07-10 12:59:40  0.4
2018-07-10 13:14:40  0.4
Setpoints:
[[74.0, 78.0], [74.0, 78.0], [74.0, 78.0], [74.0, 78.0], [74.0, 78.0], [74.0, 78.0], [74.0, 78.0], [74.0, 78.0], [74.0, 78.0], [74.0, 78.0], [74.0, 78.0], [74.0, 78.0], [74.0, 78.0], [74.0, 78.0], [74.0, 78.0], [74.0, 78.0], [74.0, 78.0]]
Time needed to calculate the shortest path:
18.4007878304


2018-07-10 16:37:05
MPC Actions: ['0', '0', '0', '0', '0', '0', '0', '0', '0', '0', '0', '0', '0', '0', '0', '0']
Temperatures following the MPC path:
[77.0, 77.05000000000001, 77.10000000000001, 77.15, 77.2, 77.25, 77.30000000000001, 77.35000000000001, 77.4, 77.45, 77.5, 77.55000000000001, 77.60000000000001, 77.65, 77.7, 77.75, 77.80000000000001]
Safety Constraints:
[[54.0, 86.0], [54.0, 86.0], [54.0, 86.0], [54.0, 86.0], [54.0, 86.0], [54.0, 86.0], [54.0, 86.0], [54.0, 86.0], [54.0, 86.0], [54.0, 86.0], [54.0, 86.0], [54.0, 86.0], [54.0, 86.0], [54.0, 86.0], [54.0, 86.0], [54.0, 86.0], [54.0, 86.0]]
Prices:
[0.24, 0.24, 0.24, 0.24, 0.24, 0.24, 0.24, 0.24, 0.24, 0.24, 0.26, 0.26, 0.26, 0.26, 0.26, 0.26, 0.26]
Occ Predictions:
                       0
2018-07-10 09:22:05  1.0
2018-07-10 09:37:05  0.4
2018-07-10 09:52:05  0.4
2018-07-10 10:07:05  0.4
2018-07-10 10:22:05  0.4
2018-07-10 10:37:05  0.4
2018-07-10 10:52:05  0.4
2018-07-10 11:07:05  0.4
2018-07-10 11:22:05  0.4
2018-07-10 11:37:05  0.4
2018-07-10 11:52:05  0.4
2018-07-10 12:07:05  0.4
2018-07-10 12:22:05  0.4
2018-07-10 12:37:05  0.4
2018-07-10 12:52:05  0.4
2018-07-10 13:07:05  0.4
2018-07-10 13:22:05  0.4
Setpoints:
[[74.0, 78.0], [74.0, 78.0], [74.0, 78.0], [74.0, 78.0], [74.0, 78.0], [74.0, 78.0], [74.0, 78.0], [74.0, 78.0], [74.0, 78.0], [74.0, 78.0], [74.0, 78.0], [74.0, 78.0], [74.0, 78.0], [74.0, 78.0], [74.0, 78.0], [74.0, 78.0], [74.0, 78.0]]
Time needed to calculate the shortest path:
17.1572751999


2018-07-10 16:52:05
MPC Actions: ['2', '2', '0', '0', '0', '0', '0', '0', '0', '0', '0', '0', '0', '0', '0', '0']
Temperatures following the MPC path:
[78.0, 77.60000000000001, 77.25, 77.30000000000001, 77.35000000000001, 77.4, 77.45, 77.5, 77.55000000000001, 77.60000000000001, 77.65, 77.7, 77.75, 77.80000000000001, 77.9, 77.95, 78.0]
Safety Constraints:
[[54.0, 86.0], [54.0, 86.0], [54.0, 86.0], [54.0, 86.0], [54.0, 86.0], [54.0, 86.0], [54.0, 86.0], [54.0, 86.0], [54.0, 86.0], [54.0, 86.0], [54.0, 86.0], [54.0, 86.0], [54.0, 86.0], [54.0, 86.0], [54.0, 86.0], [54.0, 86.0], [54.0, 86.0]]
Prices:
[0.24, 0.24, 0.24, 0.24, 0.24, 0.24, 0.24, 0.24, 0.24, 0.26, 0.26, 0.26, 0.26, 0.26, 0.26, 0.26, 0.26]
Occ Predictions:
                       0
2018-07-10 09:37:05  1.0
2018-07-10 09:52:05  0.4
2018-07-10 10:07:05  0.4
2018-07-10 10:22:05  0.4
2018-07-10 10:37:05  0.4
2018-07-10 10:52:05  0.4
2018-07-10 11:07:05  0.4
2018-07-10 11:22:05  0.4
2018-07-10 11:37:05  0.4
2018-07-10 11:52:05  0.4
2018-07-10 12:07:05  0.4
2018-07-10 12:22:05  0.4
2018-07-10 12:37:05  0.4
2018-07-10 12:52:05  0.4
2018-07-10 13:07:05  0.4
2018-07-10 13:22:05  0.4
2018-07-10 13:37:05  0.4
Setpoints:
[[74.0, 78.0], [74.0, 78.0], [74.0, 78.0], [74.0, 78.0], [74.0, 78.0], [74.0, 78.0], [74.0, 78.0], [74.0, 78.0], [74.0, 78.0], [74.0, 78.0], [74.0, 78.0], [74.0, 78.0], [74.0, 78.0], [74.0, 78.0], [74.0, 78.0], [74.0, 78.0], [74.0, 78.0]]
Time needed to calculate the shortest path:
16.7570829391


2018-07-10 17:07:05
MPC Actions: ['0', '0', '0', '0', '0', '0', '0', '0', '0', '0', '0', '0', '0', '0', '0', '0']
Temperatures following the MPC path:
[76.0, 76.05, 76.10000000000001, 76.15, 76.2, 76.25, 76.3, 76.35000000000001, 76.4, 76.5, 76.60000000000001, 76.7, 76.80000000000001, 76.9, 77.0, 77.10000000000001, 77.2]
Safety Constraints:
[[54.0, 86.0], [54.0, 86.0], [54.0, 86.0], [54.0, 86.0], [54.0, 86.0], [54.0, 86.0], [54.0, 86.0], [54.0, 86.0], [54.0, 86.0], [54.0, 86.0], [54.0, 86.0], [54.0, 86.0], [54.0, 86.0], [54.0, 86.0], [54.0, 86.0], [54.0, 86.0], [54.0, 86.0]]
Prices:
[0.24, 0.24, 0.24, 0.24, 0.24, 0.24, 0.24, 0.24, 0.26, 0.26, 0.26, 0.26, 0.26, 0.26, 0.26, 0.26, 0.6, 0.6, 0.6, 0.6, 0.6]
Occ Predictions:
                       0
2018-07-10 09:52:05  1.0
2018-07-10 10:07:05  0.4
2018-07-10 10:22:05  0.4
2018-07-10 10:37:05  0.4
2018-07-10 10:52:05  0.4
2018-07-10 11:07:05  0.4
2018-07-10 11:22:05  0.4
2018-07-10 11:37:05  0.4
2018-07-10 11:52:05  0.4
2018-07-10 12:07:05  0.4
2018-07-10 12:22:05  0.4
2018-07-10 12:37:05  0.4
2018-07-10 12:52:05  0.4
2018-07-10 13:07:05  0.4
2018-07-10 13:22:05  0.4
2018-07-10 13:37:05  0.4
2018-07-10 13:52:05  0.4
Setpoints:
[[74.0, 78.0], [74.0, 78.0], [74.0, 78.0], [74.0, 78.0], [74.0, 78.0], [74.0, 78.0], [74.0, 78.0], [74.0, 78.0], [74.0, 78.0], [74.0, 78.0], [74.0, 78.0], [74.0, 78.0], [74.0, 78.0], [74.0, 78.0], [74.0, 78.0], [74.0, 78.0], [74.0, 78.0]]
Time needed to calculate the shortest path:
17.0293800831


2018-07-10 17:22:05
MPC Actions: ['0', '0', '0', '0', '0', '0', '0', '0', '0', '0', '0', '0', '0', '0', '0', '0']
Temperatures following the MPC path:
[77.0, 77.05000000000001, 77.10000000000001, 77.15, 77.2, 77.25, 77.30000000000001, 77.35000000000001, 77.4, 77.45, 77.5, 77.55000000000001, 77.65, 77.7, 77.75, 77.80000000000001, 77.9]
Safety Constraints:
[[54.0, 86.0], [54.0, 86.0], [54.0, 86.0], [54.0, 86.0], [54.0, 86.0], [54.0, 86.0], [54.0, 86.0], [54.0, 86.0], [54.0, 86.0], [54.0, 86.0], [54.0, 86.0], [54.0, 86.0], [54.0, 86.0], [54.0, 86.0], [54.0, 86.0], [54.0, 86.0], [54.0, 86.0]]
Prices:
[0.24, 0.24, 0.24, 0.24, 0.24, 0.24, 0.24, 0.26, 0.26, 0.26, 0.26, 0.26, 0.26, 0.26, 0.26, 0.6, 0.6, 0.6, 0.6, 0.6, 0.6, 0.6, 0.6, 0.6, 0.6]
Occ Predictions:
                       0
2018-07-10 10:07:05  1.0
2018-07-10 10:22:05  0.6
2018-07-10 10:37:05  0.6
2018-07-10 10:52:05  0.6
2018-07-10 11:07:05  0.6
2018-07-10 11:22:05  0.6
2018-07-10 11:37:05  0.6
2018-07-10 11:52:05  0.6
2018-07-10 12:07:05  0.6
2018-07-10 12:22:05  0.6
2018-07-10 12:37:05  0.6
2018-07-10 12:52:05  0.6
2018-07-10 13:07:05  0.6
2018-07-10 13:22:05  0.6
2018-07-10 13:37:05  0.6
2018-07-10 13:52:05  0.6
2018-07-10 14:07:05  0.6
Setpoints:
[[74.0, 78.0], [74.0, 78.0], [74.0, 78.0], [74.0, 78.0], [74.0, 78.0], [74.0, 78.0], [74.0, 78.0], [74.0, 78.0], [74.0, 78.0], [74.0, 78.0], [74.0, 78.0], [74.0, 78.0], [74.0, 78.0], [74.0, 78.0], [74.0, 78.0], [74.0, 78.0], [74.0, 78.0]]
Time needed to calculate the shortest path:
12.2623939514
THERMOSTAT CHANGED MANUALY AT : 2018-07-10 17:37:05 UTC

2018-07-10 19:56:57
MPC Actions: ['2', '2', '2', '2', '2', '2', '0', '0', '0', '0', '0', '0', '0', '0', '0', '0']
Temperatures following the MPC path:
[79.0, 78.60000000000001, 78.25, 77.9, 77.55000000000001, 77.25, 76.95, 77.05000000000001, 77.15, 77.25, 77.35000000000001, 77.45, 77.55000000000001, 77.65, 77.75, 77.85000000000001, 77.95]
Safety Constraints:
[[54.0, 86.0], [54.0, 86.0], [54.0, 86.0], [54.0, 86.0], [54.0, 86.0], [54.0, 86.0], [54.0, 86.0], [54.0, 86.0], [54.0, 86.0], [54.0, 86.0], [54.0, 86.0], [54.0, 86.0], [54.0, 86.0], [54.0, 86.0], [54.0, 86.0], [54.0, 86.0], [54.0, 86.0]]
Prices:
[0.26, 0.26, 0.26, 0.26, 0.26, 0.6, 0.6, 0.6, 0.6, 0.6, 0.6, 0.6, 0.6, 0.6, 0.6, 0.6, 0.6, 0.6, 0.6, 0.6, 0.6, 0.6, 0.6, 0.6, 0.6, 0.6, 0.6, 0.6, 0.6, 0.6, 0.6, 0.6, 0.6, 0.6, 0.6, 0.6, 0.6, 0.6, 0.6, 0.6, 0.6, 0.6, 0.6, 0.6, 0.6, 0.6, 0.6, 0.6, 0.6, 0.6, 0.6, 0.6, 0.6, 0.6, 0.6, 0.6, 0.6, 0.6, 0.6, 0.6, 0.6, 0.6, 0.6, 0.6, 0.6]
Occ Predictions:
                       0
2018-07-10 12:41:57  1.0
2018-07-10 12:56:57  1.0
2018-07-10 13:11:57  1.0
2018-07-10 13:26:57  1.0
2018-07-10 13:41:57  1.0
2018-07-10 13:56:57  1.0
2018-07-10 14:11:57  1.0
2018-07-10 14:26:57  1.0
2018-07-10 14:41:57  1.0
2018-07-10 14:56:57  1.0
2018-07-10 15:11:57  1.0
2018-07-10 15:26:57  1.0
2018-07-10 15:41:57  1.0
2018-07-10 15:56:57  1.0
2018-07-10 16:11:57  1.0
2018-07-10 16:26:57  1.0
2018-07-10 16:41:57  1.0
Setpoints:
[[74.0, 78.0], [74.0, 78.0], [74.0, 78.0], [74.0, 78.0], [74.0, 78.0], [74.0, 78.0], [74.0, 78.0], [74.0, 78.0], [74.0, 78.0], [74.0, 78.0], [74.0, 78.0], [74.0, 78.0], [74.0, 78.0], [74.0, 78.0], [74.0, 78.0], [74.0, 78.0], [74.0, 78.0]]
Time needed to calculate the shortest path:
18.2419979572


2018-07-10 20:11:57
MPC Actions: ['2', '2', '2', '2', '2', '2', '0', '0', '0', '0', '0', '0', '0', '0', '0', '0']
Temperatures following the MPC path:
[79.0, 78.60000000000001, 78.25, 77.9, 77.55000000000001, 77.25, 76.95, 77.05000000000001, 77.15, 77.25, 77.35000000000001, 77.45, 77.55000000000001, 77.65, 77.75, 77.85000000000001, 77.95]
Safety Constraints:
[[54.0, 86.0], [54.0, 86.0], [54.0, 86.0], [54.0, 86.0], [54.0, 86.0], [54.0, 86.0], [54.0, 86.0], [54.0, 86.0], [54.0, 86.0], [54.0, 86.0], [54.0, 86.0], [54.0, 86.0], [54.0, 86.0], [54.0, 86.0], [54.0, 86.0], [54.0, 86.0], [54.0, 86.0]]
Prices:
[0.26, 0.26, 0.26, 0.26, 0.6, 0.6, 0.6, 0.6, 0.6, 0.6, 0.6, 0.6, 0.6, 0.6, 0.6, 0.6, 0.6, 0.6, 0.6, 0.6, 0.6, 0.6, 0.6, 0.6, 0.6, 0.6, 0.6, 0.6, 0.6, 0.6, 0.6, 0.6, 0.6, 0.6, 0.6, 0.6, 0.6, 0.6, 0.6, 0.6, 0.6, 0.6, 0.6, 0.6, 0.6, 0.6, 0.6, 0.6, 0.6, 0.6, 0.6, 0.6, 0.6, 0.6, 0.6, 0.6, 0.6, 0.6, 0.6, 0.6, 0.6, 0.6, 0.6, 0.6, 0.6, 0.6, 0.6, 0.6, 0.6]
Occ Predictions:
                       0
2018-07-10 12:56:57  1.0
2018-07-10 13:11:57  1.0
2018-07-10 13:26:57  1.0
2018-07-10 13:41:57  1.0
2018-07-10 13:56:57  1.0
2018-07-10 14:11:57  1.0
2018-07-10 14:26:57  1.0
2018-07-10 14:41:57  1.0
2018-07-10 14:56:57  1.0
2018-07-10 15:11:57  1.0
2018-07-10 15:26:57  1.0
2018-07-10 15:41:57  1.0
2018-07-10 15:56:57  1.0
2018-07-10 16:11:57  1.0
2018-07-10 16:26:57  1.0
2018-07-10 16:41:57  1.0
2018-07-10 16:56:57  1.0
Setpoints:
[[74.0, 78.0], [74.0, 78.0], [74.0, 78.0], [74.0, 78.0], [74.0, 78.0], [74.0, 78.0], [74.0, 78.0], [74.0, 78.0], [74.0, 78.0], [74.0, 78.0], [74.0, 78.0], [74.0, 78.0], [74.0, 78.0], [74.0, 78.0], [74.0, 78.0], [74.0, 78.0], [74.0, 78.0]]
Time needed to calculate the shortest path:
18.2360761166


2018-07-10 20:26:57
MPC Actions: ['2', '2', '2', '2', '2', '2', '0', '0', '0', '0', '0', '0', '0', '0', '0', '0']
Temperatures following the MPC path:
[79.0, 78.60000000000001, 78.25, 77.9, 77.55000000000001, 77.2, 76.9, 77.0, 77.10000000000001, 77.2, 77.30000000000001, 77.4, 77.5, 77.60000000000001, 77.7, 77.80000000000001, 77.9]
Safety Constraints:
[[54.0, 86.0], [54.0, 86.0], [54.0, 86.0], [54.0, 86.0], [54.0, 86.0], [54.0, 86.0], [54.0, 86.0], [54.0, 86.0], [54.0, 86.0], [54.0, 86.0], [54.0, 86.0], [54.0, 86.0], [54.0, 86.0], [54.0, 86.0], [54.0, 86.0], [54.0, 86.0], [54.0, 86.0]]
Prices:
[0.26, 0.26, 0.26, 0.6, 0.6, 0.6, 0.6, 0.6, 0.6, 0.6, 0.6, 0.6, 0.6, 0.6, 0.6, 0.6, 0.6, 0.6, 0.6, 0.6, 0.6, 0.6, 0.6, 0.6, 0.6, 0.6, 0.6, 0.6, 0.6, 0.6, 0.6, 0.6, 0.6, 0.6, 0.6, 0.6, 0.6, 0.6, 0.6, 0.6, 0.6, 0.6, 0.6, 0.6, 0.6, 0.6, 0.6, 0.6, 0.6, 0.6, 0.6, 0.6, 0.6, 0.6, 0.6, 0.6, 0.6, 0.6, 0.6, 0.6, 0.6, 0.6, 0.6, 0.6, 0.6, 0.6, 0.6, 0.6, 0.6, 0.6, 0.6, 0.6, 0.6]
Occ Predictions:
                       0
2018-07-10 13:11:57  1.0
2018-07-10 13:26:57  1.0
2018-07-10 13:41:57  1.0
2018-07-10 13:56:57  1.0
2018-07-10 14:11:57  1.0
2018-07-10 14:26:57  1.0
2018-07-10 14:41:57  1.0
2018-07-10 14:56:57  1.0
2018-07-10 15:11:57  1.0
2018-07-10 15:26:57  1.0
2018-07-10 15:41:57  1.0
2018-07-10 15:56:57  1.0
2018-07-10 16:11:57  1.0
2018-07-10 16:26:57  1.0
2018-07-10 16:41:57  1.0
2018-07-10 16:56:57  1.0
2018-07-10 17:11:57  1.0
Setpoints:
[[74.0, 78.0], [74.0, 78.0], [74.0, 78.0], [74.0, 78.0], [74.0, 78.0], [74.0, 78.0], [74.0, 78.0], [74.0, 78.0], [74.0, 78.0], [74.0, 78.0], [74.0, 78.0], [74.0, 78.0], [74.0, 78.0], [74.0, 78.0], [74.0, 78.0], [74.0, 78.0], [74.0, 78.0]]
Time needed to calculate the shortest path:
14.5892531872


2018-07-10 20:41:57
MPC Actions: ['2', '2', '2', '2', '0', '0', '0', '0', '0', '0', '0', '0', '0', '0', '0', '0']
Temperatures following the MPC path:
[78.0, 77.65, 77.30000000000001, 77.0, 76.7, 76.80000000000001, 76.9, 77.0, 77.10000000000001, 77.2, 77.30000000000001, 77.4, 77.5, 77.60000000000001, 77.7, 77.80000000000001, 77.9]
Safety Constraints:
[[54.0, 86.0], [54.0, 86.0], [54.0, 86.0], [54.0, 86.0], [54.0, 86.0], [54.0, 86.0], [54.0, 86.0], [54.0, 86.0], [54.0, 86.0], [54.0, 86.0], [54.0, 86.0], [54.0, 86.0], [54.0, 86.0], [54.0, 86.0], [54.0, 86.0], [54.0, 86.0], [54.0, 86.0]]
Prices:
[0.26, 0.26, 0.6, 0.6, 0.6, 0.6, 0.6, 0.6, 0.6, 0.6, 0.6, 0.6, 0.6, 0.6, 0.6, 0.6, 0.6, 0.6, 0.6, 0.6, 0.6, 0.6, 0.6, 0.6, 0.6, 0.6, 0.6, 0.6, 0.6, 0.6, 0.6, 0.6, 0.6, 0.6, 0.6, 0.6, 0.6, 0.6, 0.6, 0.6, 0.6, 0.6, 0.6, 0.6, 0.6, 0.6, 0.6, 0.6, 0.6, 0.6, 0.6, 0.6, 0.6, 0.6, 0.6, 0.6, 0.6, 0.6, 0.6, 0.6, 0.6, 0.6, 0.6, 0.6, 0.6, 0.6, 0.6, 0.6, 0.6, 0.6, 0.6, 0.6, 0.6, 0.6, 0.6, 0.6, 0.6]
Occ Predictions:
                       0
2018-07-10 13:26:57  1.0
2018-07-10 13:41:57  1.0
2018-07-10 13:56:57  1.0
2018-07-10 14:11:57  1.0
2018-07-10 14:26:57  1.0
2018-07-10 14:41:57  1.0
2018-07-10 14:56:57  1.0
2018-07-10 15:11:57  1.0
2018-07-10 15:26:57  1.0
2018-07-10 15:41:57  1.0
2018-07-10 15:56:57  1.0
2018-07-10 16:11:57  1.0
2018-07-10 16:26:57  1.0
2018-07-10 16:41:57  1.0
2018-07-10 16:56:57  1.0
2018-07-10 17:11:57  1.0
2018-07-10 17:26:57  1.0
Setpoints:
[[74.0, 78.0], [74.0, 78.0], [74.0, 78.0], [74.0, 78.0], [74.0, 78.0], [74.0, 78.0], [74.0, 78.0], [74.0, 78.0], [74.0, 78.0], [74.0, 78.0], [74.0, 78.0], [74.0, 78.0], [74.0, 78.0], [74.0, 78.0], [74.0, 78.0], [74.0, 78.0], [74.0, 78.0]]
Time needed to calculate the shortest path:
15.2418029308


2018-07-10 20:46:08
MPC Actions: ['2', '2', '2', '2', '0', '0', '0', '0', '0', '0', '0', '0', '0', '0', '0', '0']
Temperatures following the MPC path:
[78.0, 77.65, 77.325, 77.0, 76.7, 76.80000000000001, 76.9, 77.0, 77.10000000000001, 77.2, 77.30000000000001, 77.4, 77.5, 77.60000000000001, 77.67500000000001, 77.75, 77.825]
Safety Constraints:
[[54.0, 86.0], [54.0, 86.0], [54.0, 86.0], [54.0, 86.0], [54.0, 86.0], [54.0, 86.0], [54.0, 86.0], [54.0, 86.0], [54.0, 86.0], [54.0, 86.0], [54.0, 86.0], [54.0, 86.0], [54.0, 86.0], [54.0, 86.0], [54.0, 86.0], [54.0, 86.0], [54.0, 86.0]]
Prices:
[0.26, 0.6, 0.6, 0.6, 0.6, 0.6, 0.6, 0.6, 0.6, 0.6, 0.6, 0.6, 0.6, 0.6, 0.6, 0.6, 0.6, 0.6, 0.6, 0.6, 0.6, 0.6, 0.6, 0.6, 0.6, 0.6, 0.6, 0.6, 0.6, 0.6, 0.6, 0.6, 0.6, 0.6, 0.6, 0.6, 0.6, 0.6, 0.6, 0.6, 0.6, 0.6, 0.6, 0.6, 0.6, 0.6, 0.6, 0.6, 0.6, 0.6, 0.6, 0.6, 0.6, 0.6, 0.6, 0.6, 0.6, 0.6, 0.6, 0.6, 0.6, 0.6, 0.6, 0.6, 0.6, 0.6, 0.6, 0.6, 0.6, 0.6, 0.6, 0.6, 0.6, 0.6, 0.6, 0.6, 0.6, 0.6, 0.6, 0.6, 0.6]
Occ Predictions:
                       0
2018-07-10 13:31:08  1.0
2018-07-10 13:46:08  1.0
2018-07-10 14:01:08  1.0
2018-07-10 14:16:08  1.0
2018-07-10 14:31:08  1.0
2018-07-10 14:46:08  1.0
2018-07-10 15:01:08  1.0
2018-07-10 15:16:08  1.0
2018-07-10 15:31:08  1.0
2018-07-10 15:46:08  1.0
2018-07-10 16:01:08  1.0
2018-07-10 16:16:08  1.0
2018-07-10 16:31:08  1.0
2018-07-10 16:46:08  1.0
2018-07-10 17:01:08  1.0
2018-07-10 17:16:08  1.0
2018-07-10 17:31:08  1.0
Setpoints:
[[74.0, 78.0], [74.0, 78.0], [74.0, 78.0], [74.0, 78.0], [74.0, 78.0], [74.0, 78.0], [74.0, 78.0], [74.0, 78.0], [74.0, 78.0], [74.0, 78.0], [74.0, 78.0], [74.0, 78.0], [74.0, 78.0], [74.0, 78.0], [74.0, 78.0], [74.0, 78.0], [74.0, 78.0]]
Time needed to calculate the shortest path:
30.836400032


2018-07-10 21:01:08
MPC Actions: ['2', '0', '0', '0', '0', '0', '0', '0', '0', '0', '0', '0', '0', '0', '0', '0']
Temperatures following the MPC path:
[77.0, 76.7, 76.80000000000001, 76.9, 77.0, 77.10000000000001, 77.2, 77.30000000000001, 77.4, 77.5, 77.60000000000001, 77.7, 77.80000000000001, 77.875, 77.95, 78.025, 78.10000000000001]
Safety Constraints:
[[54.0, 86.0], [54.0, 86.0], [54.0, 86.0], [54.0, 86.0], [54.0, 86.0], [54.0, 86.0], [54.0, 86.0], [54.0, 86.0], [54.0, 86.0], [54.0, 86.0], [54.0, 86.0], [54.0, 86.0], [54.0, 86.0], [54.0, 86.0], [54.0, 86.0], [54.0, 86.0], [54.0, 86.0]]
Prices:
[0.6, 0.6, 0.6, 0.6, 0.6, 0.6, 0.6, 0.6, 0.6, 0.6, 0.6, 0.6, 0.6, 0.6, 0.6, 0.6, 0.6, 0.6, 0.6, 0.6, 0.6, 0.6, 0.6, 0.6, 0.6, 0.6, 0.6, 0.6, 0.6, 0.6, 0.6, 0.6, 0.6, 0.6, 0.6, 0.6, 0.6, 0.6, 0.6, 0.6, 0.6, 0.6, 0.6, 0.6, 0.6, 0.6, 0.6, 0.6, 0.6, 0.6, 0.6, 0.6, 0.6, 0.6, 0.6, 0.6, 0.6, 0.6, 0.6, 0.6, 0.6, 0.6, 0.6, 0.6, 0.6, 0.6, 0.6, 0.6, 0.6, 0.6, 0.6, 0.6, 0.6, 0.6, 0.6, 0.6, 0.6, 0.6, 0.6, 0.6, 0.24]
Occ Predictions:
                       0
2018-07-10 13:46:08  1.0
2018-07-10 14:01:08  1.0
2018-07-10 14:16:08  1.0
2018-07-10 14:31:08  1.0
2018-07-10 14:46:08  1.0
2018-07-10 15:01:08  1.0
2018-07-10 15:16:08  1.0
2018-07-10 15:31:08  1.0
2018-07-10 15:46:08  1.0
2018-07-10 16:01:08  1.0
2018-07-10 16:16:08  1.0
2018-07-10 16:31:08  1.0
2018-07-10 16:46:08  1.0
2018-07-10 17:01:08  1.0
2018-07-10 17:16:08  1.0
2018-07-10 17:31:08  1.0
2018-07-10 17:46:08  1.0
Setpoints:
[[74.0, 78.0], [74.0, 78.0], [74.0, 78.0], [74.0, 78.0], [74.0, 78.0], [74.0, 78.0], [74.0, 78.0], [74.0, 78.0], [74.0, 78.0], [74.0, 78.0], [74.0, 78.0], [74.0, 78.0], [74.0, 78.0], [74.0, 78.0], [74.0, 78.0], [74.0, 78.0], [60.0, 85.0]]
Time needed to calculate the shortest path:
25.7974059582


2018-07-10 21:16:07
MPC Actions: ['2', '0', '0', '0', '0', '0', '0', '0', '0', '0', '0', '0', '0', '0', '0', '0']
Temperatures following the MPC path:
[77.0, 76.7, 76.80000000000001, 76.9, 77.0, 77.10000000000001, 77.2, 77.30000000000001, 77.4, 77.47500000000001, 77.55000000000001, 77.625, 77.7, 77.775, 77.85000000000001, 77.92500000000001, 78.0]
Safety Constraints:
[[54.0, 86.0], [54.0, 86.0], [54.0, 86.0], [54.0, 86.0], [54.0, 86.0], [54.0, 86.0], [54.0, 86.0], [54.0, 86.0], [54.0, 86.0], [54.0, 86.0], [54.0, 86.0], [54.0, 86.0], [54.0, 86.0], [54.0, 86.0], [54.0, 86.0], [54.0, 86.0], [54.0, 86.0]]
Prices:
[0.6, 0.6, 0.6, 0.6, 0.6, 0.6, 0.6, 0.6, 0.6, 0.6, 0.6, 0.6, 0.6, 0.6, 0.6, 0.6, 0.6, 0.6, 0.6, 0.6, 0.6, 0.6, 0.6, 0.6, 0.6, 0.6, 0.6, 0.6, 0.6, 0.6, 0.6, 0.6, 0.6, 0.6, 0.6, 0.6, 0.6, 0.6, 0.6, 0.6, 0.6, 0.6, 0.6, 0.6, 0.6, 0.6, 0.6, 0.6, 0.6, 0.6, 0.6, 0.6, 0.6, 0.6, 0.6, 0.6, 0.6, 0.6, 0.6, 0.6, 0.6, 0.6, 0.6, 0.6, 0.6, 0.6, 0.6, 0.6, 0.6, 0.6, 0.6, 0.6, 0.6, 0.6, 0.6, 0.24, 0.24]
Occ Predictions:
                       0
2018-07-10 14:01:07  1.0
2018-07-10 14:16:07  1.0
2018-07-10 14:31:07  1.0
2018-07-10 14:46:07  1.0
2018-07-10 15:01:07  1.0
2018-07-10 15:16:07  1.0
2018-07-10 15:31:07  1.0
2018-07-10 15:46:07  1.0
2018-07-10 16:01:07  1.0
2018-07-10 16:16:07  1.0
2018-07-10 16:31:07  1.0
2018-07-10 16:46:07  1.0
2018-07-10 17:01:07  1.0
2018-07-10 17:16:07  1.0
2018-07-10 17:31:07  1.0
2018-07-10 17:46:07  1.0
2018-07-10 18:01:07  1.0
Setpoints:
[[74.0, 78.0], [74.0, 78.0], [74.0, 78.0], [74.0, 78.0], [74.0, 78.0], [74.0, 78.0], [74.0, 78.0], [74.0, 78.0], [74.0, 78.0], [74.0, 78.0], [74.0, 78.0], [74.0, 78.0], [74.0, 78.0], [74.0, 78.0], [74.0, 78.0], [60.0, 85.0], [60.0, 85.0]]
Time needed to calculate the shortest path:
26.8697390556


2018-07-10 21:31:08
MPC Actions: ['0', '0', '0', '0', '0', '0', '0', '0', '0', '0', '0', '0', '0', '0', '0', '0']
Temperatures following the MPC path:
[76.0, 76.10000000000001, 76.2, 76.3, 76.4, 76.5, 76.60000000000001, 76.7, 76.80000000000001, 76.9, 77.0, 77.075, 77.15, 77.22500000000001, 77.30000000000001, 77.375, 77.45]
Safety Constraints:
[[54.0, 86.0], [54.0, 86.0], [54.0, 86.0], [54.0, 86.0], [54.0, 86.0], [54.0, 86.0], [54.0, 86.0], [54.0, 86.0], [54.0, 86.0], [54.0, 86.0], [54.0, 86.0], [54.0, 86.0], [54.0, 86.0], [54.0, 86.0], [54.0, 86.0], [54.0, 86.0], [54.0, 86.0]]
Prices:
[0.6, 0.6, 0.6, 0.6, 0.6, 0.6, 0.6, 0.6, 0.6, 0.6, 0.6, 0.6, 0.6, 0.6, 0.6, 0.6, 0.6, 0.6, 0.6, 0.6, 0.6, 0.6, 0.6, 0.6, 0.6, 0.6, 0.6, 0.6, 0.6, 0.6, 0.6, 0.6, 0.6, 0.6, 0.6, 0.6, 0.6, 0.6, 0.6, 0.6, 0.6, 0.6, 0.6, 0.6, 0.6, 0.6, 0.6, 0.6, 0.6, 0.6, 0.6, 0.6, 0.6, 0.6, 0.6, 0.6, 0.6, 0.6, 0.6, 0.6, 0.6, 0.6, 0.6, 0.6, 0.6, 0.6, 0.6, 0.6, 0.6, 0.6, 0.24, 0.24, 0.24]
Occ Predictions:
                       0
2018-07-10 14:16:08  1.0
2018-07-10 14:31:08  1.0
2018-07-10 14:46:08  1.0
2018-07-10 15:01:08  1.0
2018-07-10 15:16:08  1.0
2018-07-10 15:31:08  1.0
2018-07-10 15:46:08  1.0
2018-07-10 16:01:08  1.0
2018-07-10 16:16:08  1.0
2018-07-10 16:31:08  1.0
2018-07-10 16:46:08  1.0
2018-07-10 17:01:08  1.0
2018-07-10 17:16:08  1.0
2018-07-10 17:31:08  1.0
2018-07-10 17:46:08  1.0
2018-07-10 18:01:08  1.0
2018-07-10 18:16:08  1.0
Setpoints:
[[74.0, 78.0], [74.0, 78.0], [74.0, 78.0], [74.0, 78.0], [74.0, 78.0], [74.0, 78.0], [74.0, 78.0], [74.0, 78.0], [74.0, 78.0], [74.0, 78.0], [74.0, 78.0], [74.0, 78.0], [74.0, 78.0], [74.0, 78.0], [60.0, 85.0], [60.0, 85.0], [60.0, 85.0]]
Time needed to calculate the shortest path:
27.4540350437


2018-07-10 21:46:08
MPC Actions: ['2', '0', '0', '0', '0', '0', '0', '0', '0', '0', '0', '0', '0', '0', '0', '0']
Temperatures following the MPC path:
[77.0, 76.7, 76.80000000000001, 76.9, 77.0, 77.10000000000001, 77.2, 77.30000000000001, 77.4, 77.5, 77.575, 77.65, 77.72500000000001, 77.80000000000001, 77.875, 77.95, 78.025]
Safety Constraints:
[[54.0, 86.0], [54.0, 86.0], [54.0, 86.0], [54.0, 86.0], [54.0, 86.0], [54.0, 86.0], [54.0, 86.0], [54.0, 86.0], [54.0, 86.0], [54.0, 86.0], [54.0, 86.0], [54.0, 86.0], [54.0, 86.0], [54.0, 86.0], [54.0, 86.0], [54.0, 86.0], [54.0, 86.0]]
Prices:
[0.6, 0.6, 0.6, 0.6, 0.6, 0.6, 0.6, 0.6, 0.6, 0.6, 0.6, 0.6, 0.6, 0.6, 0.6, 0.6, 0.6, 0.6, 0.6, 0.6, 0.6, 0.6, 0.6, 0.6, 0.6, 0.6, 0.6, 0.6, 0.6, 0.6, 0.6, 0.6, 0.6, 0.6, 0.6, 0.6, 0.6, 0.6, 0.6, 0.6, 0.6, 0.6, 0.6, 0.6, 0.6, 0.6, 0.6, 0.6, 0.6, 0.6, 0.6, 0.6, 0.6, 0.6, 0.6, 0.6, 0.6, 0.6, 0.6, 0.6, 0.6, 0.6, 0.6, 0.6, 0.6, 0.24, 0.24, 0.24, 0.24]
Occ Predictions:
                       0
2018-07-10 14:31:08  1.0
2018-07-10 14:46:08  1.0
2018-07-10 15:01:08  1.0
2018-07-10 15:16:08  1.0
2018-07-10 15:31:08  1.0
2018-07-10 15:46:08  1.0
2018-07-10 16:01:08  1.0
2018-07-10 16:16:08  1.0
2018-07-10 16:31:08  1.0
2018-07-10 16:46:08  1.0
2018-07-10 17:01:08  1.0
2018-07-10 17:16:08  1.0
2018-07-10 17:31:08  1.0
2018-07-10 17:46:08  1.0
2018-07-10 18:01:08  1.0
2018-07-10 18:16:08  1.0
2018-07-10 18:31:08  1.0
Setpoints:
[[74.0, 78.0], [74.0, 78.0], [74.0, 78.0], [74.0, 78.0], [74.0, 78.0], [74.0, 78.0], [74.0, 78.0], [74.0, 78.0], [74.0, 78.0], [74.0, 78.0], [74.0, 78.0], [74.0, 78.0], [74.0, 78.0], [60.0, 85.0], [60.0, 85.0], [60.0, 85.0], [60.0, 85.0]]
Time needed to calculate the shortest path:
26.9458768368


2018-07-10 22:01:07
MPC Actions: ['0', '0', '0', '0', '0', '0', '0', '0', '0', '0', '0', '0', '0', '0', '0', '0']
Temperatures following the MPC path:
[77.0, 77.10000000000001, 77.2, 77.30000000000001, 77.4, 77.5, 77.60000000000001, 77.7, 77.80000000000001, 77.875, 77.95, 78.025, 78.10000000000001, 78.17500000000001, 78.25, 78.325, 78.4]
Safety Constraints:
[[54.0, 86.0], [54.0, 86.0], [54.0, 86.0], [54.0, 86.0], [54.0, 86.0], [54.0, 86.0], [54.0, 86.0], [54.0, 86.0], [54.0, 86.0], [54.0, 86.0], [54.0, 86.0], [54.0, 86.0], [54.0, 86.0], [54.0, 86.0], [54.0, 86.0], [54.0, 86.0], [54.0, 86.0]]
Prices:
[0.6, 0.6, 0.6, 0.6, 0.6, 0.6, 0.6, 0.6, 0.6, 0.6, 0.6, 0.6, 0.6, 0.6, 0.6, 0.6, 0.6, 0.6, 0.6, 0.6, 0.6, 0.6, 0.6, 0.6, 0.6, 0.6, 0.6, 0.6, 0.6, 0.6, 0.6, 0.6, 0.6, 0.6, 0.6, 0.6, 0.6, 0.6, 0.6, 0.6, 0.6, 0.6, 0.6, 0.6, 0.6, 0.6, 0.6, 0.6, 0.6, 0.6, 0.6, 0.6, 0.6, 0.6, 0.6, 0.6, 0.6, 0.6, 0.6, 0.6, 0.24, 0.24, 0.24, 0.24, 0.24]
Occ Predictions:
                       0
2018-07-10 14:46:07  1.0
2018-07-10 15:01:07  1.0
2018-07-10 15:16:07  1.0
2018-07-10 15:31:07  1.0
2018-07-10 15:46:07  1.0
2018-07-10 16:01:07  1.0
2018-07-10 16:16:07  1.0
2018-07-10 16:31:07  1.0
2018-07-10 16:46:07  1.0
2018-07-10 17:01:07  1.0
2018-07-10 17:16:07  1.0
2018-07-10 17:31:07  1.0
2018-07-10 17:46:07  1.0
2018-07-10 18:01:07  1.0
2018-07-10 18:16:07  1.0
2018-07-10 18:31:07  1.0
2018-07-10 18:46:07  1.0
Setpoints:
[[74.0, 78.0], [74.0, 78.0], [74.0, 78.0], [74.0, 78.0], [74.0, 78.0], [74.0, 78.0], [74.0, 78.0], [74.0, 78.0], [74.0, 78.0], [74.0, 78.0], [74.0, 78.0], [74.0, 78.0], [60.0, 85.0], [60.0, 85.0], [60.0, 85.0], [60.0, 85.0], [60.0, 85.0]]
Time needed to calculate the shortest path:
23.9824910164


2018-07-10 22:06:04
MPC Actions: ['0', '0', '0', '0', '0', '0', '0', '0', '0', '0', '0', '0', '0', '0', '0', '0']
Temperatures following the MPC path:
[77.0, 77.10000000000001, 77.2, 77.30000000000001, 77.4, 77.5, 77.60000000000001, 77.7, 77.80000000000001, 77.875, 77.95, 78.025, 78.10000000000001, 78.17500000000001, 78.25, 78.325, 78.4]
Safety Constraints:
[[54.0, 86.0], [54.0, 86.0], [54.0, 86.0], [54.0, 86.0], [54.0, 86.0], [54.0, 86.0], [54.0, 86.0], [54.0, 86.0], [54.0, 86.0], [54.0, 86.0], [54.0, 86.0], [54.0, 86.0], [54.0, 86.0], [54.0, 86.0], [54.0, 86.0], [54.0, 86.0], [54.0, 86.0]]
Prices:
[0.6, 0.6, 0.6, 0.6, 0.6, 0.6, 0.6, 0.6, 0.6, 0.6, 0.6, 0.6, 0.6, 0.6, 0.6, 0.6, 0.6, 0.6, 0.6, 0.6, 0.6, 0.6, 0.6, 0.6, 0.6, 0.6, 0.6, 0.6, 0.6, 0.6, 0.6, 0.6, 0.6, 0.6, 0.6, 0.6, 0.6, 0.6, 0.6, 0.6, 0.6, 0.6, 0.6, 0.6, 0.6, 0.6, 0.6, 0.6, 0.6, 0.6, 0.6, 0.6, 0.6, 0.6, 0.6, 0.6, 0.6, 0.6, 0.6, 0.6, 0.24, 0.24, 0.24, 0.24, 0.24]
Occ Predictions:
                       0
2018-07-10 14:51:04  1.0
2018-07-10 15:06:04  1.0
2018-07-10 15:21:04  1.0
2018-07-10 15:36:04  1.0
2018-07-10 15:51:04  1.0
2018-07-10 16:06:04  1.0
2018-07-10 16:21:04  1.0
2018-07-10 16:36:04  1.0
2018-07-10 16:51:04  1.0
2018-07-10 17:06:04  1.0
2018-07-10 17:21:04  1.0
2018-07-10 17:36:04  1.0
2018-07-10 17:51:04  1.0
2018-07-10 18:06:04  0.8
2018-07-10 18:21:04  0.8
2018-07-10 18:36:04  0.8
2018-07-10 18:51:04  1.0
Setpoints:
[[74.0, 78.0], [74.0, 78.0], [74.0, 78.0], [74.0, 78.0], [74.0, 78.0], [74.0, 78.0], [74.0, 78.0], [74.0, 78.0], [74.0, 78.0], [74.0, 78.0], [74.0, 78.0], [74.0, 78.0], [60.0, 85.0], [60.0, 85.0], [60.0, 85.0], [60.0, 85.0], [60.0, 85.0]]
Time needed to calculate the shortest path:
41.0031211376


2018-07-10 22:21:04
MPC Actions: ['2', '2', '2', '0', '0', '0', '0', '0', '0', '0', '0', '0', '0', '0', '0', '0']
Temperatures following the MPC path:
[78.0, 77.67500000000001, 77.35000000000001, 77.05000000000001, 77.15, 77.25, 77.35000000000001, 77.45, 77.55000000000001, 77.65, 77.75, 77.825, 77.9, 77.97500000000001, 78.05000000000001, 78.125, 78.17500000000001]
Safety Constraints:
[[54.0, 86.0], [54.0, 86.0], [54.0, 86.0], [54.0, 86.0], [54.0, 86.0], [54.0, 86.0], [54.0, 86.0], [54.0, 86.0], [54.0, 86.0], [54.0, 86.0], [54.0, 86.0], [54.0, 86.0], [54.0, 86.0], [54.0, 86.0], [54.0, 86.0], [54.0, 86.0], [54.0, 86.0]]
Prices:
[0.6, 0.6, 0.6, 0.6, 0.6, 0.6, 0.6, 0.6, 0.6, 0.6, 0.6, 0.6, 0.6, 0.6, 0.6, 0.6, 0.6, 0.6, 0.6, 0.6, 0.6, 0.6, 0.6, 0.6, 0.6, 0.6, 0.6, 0.6, 0.6, 0.6, 0.6, 0.6, 0.6, 0.6, 0.6, 0.6, 0.6, 0.6, 0.6, 0.6, 0.6, 0.6, 0.6, 0.6, 0.6, 0.6, 0.6, 0.6, 0.6, 0.6, 0.6, 0.6, 0.6, 0.6, 0.6, 0.24, 0.24, 0.24, 0.24, 0.24, 0.24]
Occ Predictions:
                       0
2018-07-10 15:06:04  1.0
2018-07-10 15:21:04  1.0
2018-07-10 15:36:04  1.0
2018-07-10 15:51:04  1.0
2018-07-10 16:06:04  1.0
2018-07-10 16:21:04  1.0
2018-07-10 16:36:04  1.0
2018-07-10 16:51:04  1.0
2018-07-10 17:06:04  1.0
2018-07-10 17:21:04  1.0
2018-07-10 17:36:04  1.0
2018-07-10 17:51:04  1.0
2018-07-10 18:06:04  0.8
2018-07-10 18:21:04  0.8
2018-07-10 18:36:04  0.8
2018-07-10 18:51:04  1.0
2018-07-10 19:06:04  0.8
Setpoints:
[[74.0, 78.0], [74.0, 78.0], [74.0, 78.0], [74.0, 78.0], [74.0, 78.0], [74.0, 78.0], [74.0, 78.0], [74.0, 78.0], [74.0, 78.0], [74.0, 78.0], [74.0, 78.0], [60.0, 85.0], [60.0, 85.0], [60.0, 85.0], [60.0, 85.0], [60.0, 85.0], [60.0, 85.0]]
Time needed to calculate the shortest path:
43.2634279728


2018-07-10 22:36:04
MPC Actions: ['0', '0', '0', '0', '0', '0', '0', '0', '0', '0', '0', '0', '0', '0', '0', '0']
Temperatures following the MPC path:
[77.0, 77.10000000000001, 77.2, 77.30000000000001, 77.4, 77.5, 77.60000000000001, 77.7, 77.775, 77.85000000000001, 77.92500000000001, 78.0, 78.075, 78.15, 78.22500000000001, 78.275, 78.325]
Safety Constraints:
[[54.0, 86.0], [54.0, 86.0], [54.0, 86.0], [54.0, 86.0], [54.0, 86.0], [54.0, 86.0], [54.0, 86.0], [54.0, 86.0], [54.0, 86.0], [54.0, 86.0], [54.0, 86.0], [54.0, 86.0], [54.0, 86.0], [54.0, 86.0], [54.0, 86.0], [54.0, 86.0], [54.0, 86.0]]
Prices:
[0.6, 0.6, 0.6, 0.6, 0.6, 0.6, 0.6, 0.6, 0.6, 0.6, 0.6, 0.6, 0.6, 0.6, 0.6, 0.6, 0.6, 0.6, 0.6, 0.6, 0.6, 0.6, 0.6, 0.6, 0.6, 0.6, 0.6, 0.6, 0.6, 0.6, 0.6, 0.6, 0.6, 0.6, 0.6, 0.6, 0.6, 0.6, 0.6, 0.6, 0.6, 0.6, 0.6, 0.6, 0.6, 0.6, 0.6, 0.6, 0.6, 0.6, 0.24, 0.24, 0.24, 0.24, 0.24, 0.24, 0.24]
Occ Predictions:
                       0
2018-07-10 15:21:04  1.0
2018-07-10 15:36:04  1.0
2018-07-10 15:51:04  1.0
2018-07-10 16:06:04  1.0
2018-07-10 16:21:04  1.0
2018-07-10 16:36:04  1.0
2018-07-10 16:51:04  1.0
2018-07-10 17:06:04  1.0
2018-07-10 17:21:04  1.0
2018-07-10 17:36:04  1.0
2018-07-10 17:51:04  1.0
2018-07-10 18:06:04  0.8
2018-07-10 18:21:04  0.8
2018-07-10 18:36:04  0.8
2018-07-10 18:51:04  1.0
2018-07-10 19:06:04  0.8
2018-07-10 19:21:04  0.8
Setpoints:
[[74.0, 78.0], [74.0, 78.0], [74.0, 78.0], [74.0, 78.0], [74.0, 78.0], [74.0, 78.0], [74.0, 78.0], [74.0, 78.0], [74.0, 78.0], [74.0, 78.0], [60.0, 85.0], [60.0, 85.0], [60.0, 85.0], [60.0, 85.0], [60.0, 85.0], [60.0, 85.0], [60.0, 85.0]]
Time needed to calculate the shortest path:
39.8566861153


2018-07-10 22:51:04
MPC Actions: ['2', '2', '0', '0', '0', '0', '0', '0', '0', '0', '0', '0', '0', '0', '0', '0']
Temperatures following the MPC path:
[78.0, 77.67500000000001, 77.35000000000001, 77.45, 77.55000000000001, 77.65, 77.72500000000001, 77.80000000000001, 77.875, 77.95, 78.025, 78.10000000000001, 78.17500000000001, 78.25, 78.30000000000001, 78.35000000000001, 78.4]
Safety Constraints:
[[54.0, 86.0], [54.0, 86.0], [54.0, 86.0], [54.0, 86.0], [54.0, 86.0], [54.0, 86.0], [54.0, 86.0], [54.0, 86.0], [54.0, 86.0], [54.0, 86.0], [54.0, 86.0], [54.0, 86.0], [54.0, 86.0], [54.0, 86.0], [54.0, 86.0], [54.0, 86.0], [54.0, 86.0]]
Prices:
[0.6, 0.6, 0.6, 0.6, 0.6, 0.6, 0.6, 0.6, 0.6, 0.6, 0.6, 0.6, 0.6, 0.6, 0.6, 0.6, 0.6, 0.6, 0.6, 0.6, 0.6, 0.6, 0.6, 0.6, 0.6, 0.6, 0.6, 0.6, 0.6, 0.6, 0.6, 0.6, 0.6, 0.6, 0.6, 0.6, 0.6, 0.6, 0.6, 0.6, 0.6, 0.6, 0.6, 0.6, 0.6, 0.24, 0.24, 0.24, 0.24, 0.24, 0.24, 0.24, 0.24]
Occ Predictions:
                       0
2018-07-10 15:36:04  1.0
2018-07-10 15:51:04  1.0
2018-07-10 16:06:04  1.0
2018-07-10 16:21:04  1.0
2018-07-10 16:36:04  1.0
2018-07-10 16:51:04  1.0
2018-07-10 17:06:04  1.0
2018-07-10 17:21:04  1.0
2018-07-10 17:36:04  1.0
2018-07-10 17:51:04  1.0
2018-07-10 18:06:04  0.8
2018-07-10 18:21:04  0.8
2018-07-10 18:36:04  0.8
2018-07-10 18:51:04  1.0
2018-07-10 19:06:04  0.8
2018-07-10 19:21:04  0.8
2018-07-10 19:36:04  0.8
Setpoints:
[[74.0, 78.0], [74.0, 78.0], [74.0, 78.0], [74.0, 78.0], [74.0, 78.0], [74.0, 78.0], [74.0, 78.0], [74.0, 78.0], [74.0, 78.0], [60.0, 85.0], [60.0, 85.0], [60.0, 85.0], [60.0, 85.0], [60.0, 85.0], [60.0, 85.0], [60.0, 85.0], [60.0, 85.0]]
Time needed to calculate the shortest path:
43.7985761166


2018-07-10 23:06:04
MPC Actions: ['0', '0', '0', '0', '0', '0', '0', '0', '0', '0', '0', '0', '0', '0', '0', '0']
Temperatures following the MPC path:
[77.0, 77.10000000000001, 77.2, 77.30000000000001, 77.4, 77.5, 77.60000000000001, 77.67500000000001, 77.75, 77.825, 77.9, 77.97500000000001, 78.05000000000001, 78.10000000000001, 78.15, 78.2, 78.25]
Safety Constraints:
[[54.0, 86.0], [54.0, 86.0], [54.0, 86.0], [54.0, 86.0], [54.0, 86.0], [54.0, 86.0], [54.0, 86.0], [54.0, 86.0], [54.0, 86.0], [54.0, 86.0], [54.0, 86.0], [54.0, 86.0], [54.0, 86.0], [54.0, 86.0], [54.0, 86.0], [54.0, 86.0], [54.0, 86.0]]
Prices:
[0.6, 0.6, 0.6, 0.6, 0.6, 0.6, 0.6, 0.6, 0.6, 0.6, 0.6, 0.6, 0.6, 0.6, 0.6, 0.6, 0.6, 0.6, 0.6, 0.6, 0.6, 0.6, 0.6, 0.6, 0.6, 0.6, 0.6, 0.6, 0.6, 0.6, 0.6, 0.6, 0.6, 0.6, 0.6, 0.6, 0.6, 0.6, 0.6, 0.6, 0.24, 0.24, 0.24, 0.24, 0.24, 0.24, 0.24, 0.24, 0.24]
Occ Predictions:
                       0
2018-07-10 15:51:04  1.0
2018-07-10 16:06:04  1.0
2018-07-10 16:21:04  1.0
2018-07-10 16:36:04  1.0
2018-07-10 16:51:04  1.0
2018-07-10 17:06:04  1.0
2018-07-10 17:21:04  1.0
2018-07-10 17:36:04  1.0
2018-07-10 17:51:04  1.0
2018-07-10 18:06:04  0.8
2018-07-10 18:21:04  0.8
2018-07-10 18:36:04  0.8
2018-07-10 18:51:04  1.0
2018-07-10 19:06:04  0.8
2018-07-10 19:21:04  0.8
2018-07-10 19:36:04  0.8
2018-07-10 19:51:04  0.6
Setpoints:
[[74.0, 78.0], [74.0, 78.0], [74.0, 78.0], [74.0, 78.0], [74.0, 78.0], [74.0, 78.0], [74.0, 78.0], [74.0, 78.0], [60.0, 85.0], [60.0, 85.0], [60.0, 85.0], [60.0, 85.0], [60.0, 85.0], [60.0, 85.0], [60.0, 85.0], [60.0, 85.0], [60.0, 85.0]]
Time needed to calculate the shortest path:
41.0373768806


2018-07-10 23:21:04
MPC Actions: ['0', '0', '0', '0', '0', '0', '0', '0', '0', '0', '0', '0', '0', '0', '0', '0']
Temperatures following the MPC path:
[77.0, 77.10000000000001, 77.2, 77.30000000000001, 77.4, 77.5, 77.60000000000001, 77.7, 77.775, 77.85000000000001, 77.92500000000001, 78.0, 78.075, 78.15, 78.2, 78.25, 78.30000000000001]
Safety Constraints:
[[54.0, 86.0], [54.0, 86.0], [54.0, 86.0], [54.0, 86.0], [54.0, 86.0], [54.0, 86.0], [54.0, 86.0], [54.0, 86.0], [54.0, 86.0], [54.0, 86.0], [54.0, 86.0], [54.0, 86.0], [54.0, 86.0], [54.0, 86.0], [54.0, 86.0], [54.0, 86.0], [54.0, 86.0]]
Prices:
[0.6, 0.6, 0.6, 0.6, 0.6, 0.6, 0.6, 0.6, 0.6, 0.6, 0.6, 0.6, 0.6, 0.6, 0.6, 0.6, 0.6, 0.6, 0.6, 0.6, 0.6, 0.6, 0.6, 0.6, 0.6, 0.6, 0.6, 0.6, 0.6, 0.6, 0.6, 0.6, 0.6, 0.6, 0.6, 0.24, 0.24, 0.24, 0.24, 0.24, 0.24, 0.24, 0.24, 0.24, 0.24]
Occ Predictions:
                       0
2018-07-10 16:06:04  1.0
2018-07-10 16:21:04  1.0
2018-07-10 16:36:04  1.0
2018-07-10 16:51:04  1.0
2018-07-10 17:06:04  1.0
2018-07-10 17:21:04  1.0
2018-07-10 17:36:04  1.0
2018-07-10 17:51:04  1.0
2018-07-10 18:06:04  0.8
2018-07-10 18:21:04  0.8
2018-07-10 18:36:04  0.8
2018-07-10 18:51:04  1.0
2018-07-10 19:06:04  0.8
2018-07-10 19:21:04  0.8
2018-07-10 19:36:04  0.8
2018-07-10 19:51:04  0.6
2018-07-10 20:06:04  0.6
Setpoints:
[[74.0, 78.0], [74.0, 78.0], [74.0, 78.0], [74.0, 78.0], [74.0, 78.0], [74.0, 78.0], [74.0, 78.0], [60.0, 85.0], [60.0, 85.0], [60.0, 85.0], [60.0, 85.0], [60.0, 85.0], [60.0, 85.0], [60.0, 85.0], [60.0, 85.0], [60.0, 85.0], [60.0, 85.0]]
Time needed to calculate the shortest path:
43.0781431198


2018-07-10 23:36:04
MPC Actions: ['2', '0', '0', '0', '0', '0', '0', '0', '0', '0', '0', '0', '0', '0', '0', '0']
Temperatures following the MPC path:
[78.0, 77.67500000000001, 77.775, 77.875, 77.95, 78.025, 78.10000000000001, 78.17500000000001, 78.25, 78.325, 78.4, 78.45, 78.5, 78.55000000000001, 78.60000000000001, 78.625, 78.65]
Safety Constraints:
[[54.0, 86.0], [54.0, 86.0], [54.0, 86.0], [54.0, 86.0], [54.0, 86.0], [54.0, 86.0], [54.0, 86.0], [54.0, 86.0], [54.0, 86.0], [54.0, 86.0], [54.0, 86.0], [54.0, 86.0], [54.0, 86.0], [54.0, 86.0], [54.0, 86.0], [54.0, 86.0], [54.0, 86.0]]
Prices:
[0.6, 0.6, 0.6, 0.6, 0.6, 0.6, 0.6, 0.6, 0.6, 0.6, 0.6, 0.6, 0.6, 0.6, 0.6, 0.6, 0.6, 0.6, 0.6, 0.6, 0.6, 0.6, 0.6, 0.6, 0.6, 0.6, 0.6, 0.6, 0.6, 0.6, 0.24, 0.24, 0.24, 0.24, 0.24, 0.24, 0.24, 0.24, 0.24, 0.24, 0.24]
Occ Predictions:
                       0
2018-07-10 16:21:04  1.0
2018-07-10 16:36:04  1.0
2018-07-10 16:51:04  1.0
2018-07-10 17:06:04  1.0
2018-07-10 17:21:04  1.0
2018-07-10 17:36:04  1.0
2018-07-10 17:51:04  1.0
2018-07-10 18:06:04  0.8
2018-07-10 18:21:04  0.8
2018-07-10 18:36:04  0.8
2018-07-10 18:51:04  1.0
2018-07-10 19:06:04  0.8
2018-07-10 19:21:04  0.8
2018-07-10 19:36:04  0.8
2018-07-10 19:51:04  0.6
2018-07-10 20:06:04  0.6
2018-07-10 20:21:04  0.8
Setpoints:
[[74.0, 78.0], [74.0, 78.0], [74.0, 78.0], [74.0, 78.0], [74.0, 78.0], [74.0, 78.0], [60.0, 85.0], [60.0, 85.0], [60.0, 85.0], [60.0, 85.0], [60.0, 85.0], [60.0, 85.0], [60.0, 85.0], [60.0, 85.0], [60.0, 85.0], [60.0, 85.0], [60.0, 85.0]]
Time needed to calculate the shortest path:
40.8834218979


2018-07-10 23:51:04
MPC Actions: ['0', '0', '0', '0', '0', '0', '0', '0', '0', '0', '0', '0', '0', '0', '0', '0']
Temperatures following the MPC path:
[77.0, 77.10000000000001, 77.2, 77.30000000000001, 77.4, 77.5, 77.575, 77.65, 77.72500000000001, 77.80000000000001, 77.875, 77.95, 78.025, 78.10000000000001, 78.15, 78.2, 78.25]
Safety Constraints:
[[54.0, 86.0], [54.0, 86.0], [54.0, 86.0], [54.0, 86.0], [54.0, 86.0], [54.0, 86.0], [54.0, 86.0], [54.0, 86.0], [54.0, 86.0], [54.0, 86.0], [54.0, 86.0], [54.0, 86.0], [54.0, 86.0], [54.0, 86.0], [54.0, 86.0], [54.0, 86.0], [54.0, 86.0]]
Prices:
[0.6, 0.6, 0.6, 0.6, 0.6, 0.6, 0.6, 0.6, 0.6, 0.6, 0.6, 0.6, 0.6, 0.6, 0.6, 0.6, 0.6, 0.6, 0.6, 0.6, 0.6, 0.6, 0.6, 0.6, 0.6, 0.24, 0.24, 0.24, 0.24, 0.24, 0.24, 0.24, 0.24, 0.24, 0.24, 0.24, 0.24]
Occ Predictions:
                       0
2018-07-10 16:36:04  1.0
2018-07-10 16:51:04  1.0
2018-07-10 17:06:04  1.0
2018-07-10 17:21:04  1.0
2018-07-10 17:36:04  1.0
2018-07-10 17:51:04  1.0
2018-07-10 18:06:04  0.8
2018-07-10 18:21:04  0.8
2018-07-10 18:36:04  0.8
2018-07-10 18:51:04  1.0
2018-07-10 19:06:04  0.8
2018-07-10 19:21:04  0.8
2018-07-10 19:36:04  0.8
2018-07-10 19:51:04  0.6
2018-07-10 20:06:04  0.6
2018-07-10 20:21:04  0.8
2018-07-10 20:36:04  0.4
Setpoints:
[[74.0, 78.0], [74.0, 78.0], [74.0, 78.0], [74.0, 78.0], [74.0, 78.0], [60.0, 85.0], [60.0, 85.0], [60.0, 85.0], [60.0, 85.0], [60.0, 85.0], [60.0, 85.0], [60.0, 85.0], [60.0, 85.0], [60.0, 85.0], [60.0, 85.0], [60.0, 85.0], [60.0, 85.0]]
Time needed to calculate the shortest path:
40.5176110268


2018-07-11 00:06:04
MPC Actions: ['2', '0', '0', '0', '0', '0', '0', '0', '0', '0', '0', '0', '0', '0', '0', '0']
Temperatures following the MPC path:
[78.0, 77.65, 77.75, 77.85000000000001, 77.95, 78.025, 78.10000000000001, 78.17500000000001, 78.25, 78.30000000000001, 78.35000000000001, 78.4, 78.45, 78.5, 78.525, 78.55000000000001, 78.575]
Safety Constraints:
[[54.0, 86.0], [54.0, 86.0], [54.0, 86.0], [54.0, 86.0], [54.0, 86.0], [54.0, 86.0], [54.0, 86.0], [54.0, 86.0], [54.0, 86.0], [54.0, 86.0], [54.0, 86.0], [54.0, 86.0], [54.0, 86.0], [54.0, 86.0], [54.0, 86.0], [54.0, 86.0], [54.0, 86.0]]
Prices:
[0.6, 0.6, 0.6, 0.6, 0.6, 0.6, 0.6, 0.6, 0.6, 0.6, 0.6, 0.6, 0.6, 0.6, 0.6, 0.6, 0.6, 0.6, 0.6, 0.6, 0.24, 0.24, 0.24, 0.24, 0.24, 0.24, 0.24, 0.24, 0.24, 0.24, 0.24, 0.24, 0.24]
Occ Predictions:
                       0
2018-07-10 16:51:04  1.0
2018-07-10 17:06:04  1.0
2018-07-10 17:21:04  1.0
2018-07-10 17:36:04  1.0
2018-07-10 17:51:04  1.0
2018-07-10 18:06:04  0.8
2018-07-10 18:21:04  0.8
2018-07-10 18:36:04  0.8
2018-07-10 18:51:04  1.0
2018-07-10 19:06:04  0.8
2018-07-10 19:21:04  0.8
2018-07-10 19:36:04  0.8
2018-07-10 19:51:04  0.6
2018-07-10 20:06:04  0.6
2018-07-10 20:21:04  0.8
2018-07-10 20:36:04  0.4
2018-07-10 20:51:04  0.6
Setpoints:
[[74.0, 78.0], [74.0, 78.0], [74.0, 78.0], [74.0, 78.0], [60.0, 85.0], [60.0, 85.0], [60.0, 85.0], [60.0, 85.0], [60.0, 85.0], [60.0, 85.0], [60.0, 85.0], [60.0, 85.0], [60.0, 85.0], [60.0, 85.0], [60.0, 85.0], [60.0, 85.0], [60.0, 85.0]]
Time needed to calculate the shortest path:
47.5409240723


2018-07-11 00:21:04
MPC Actions: ['0', '0', '0', '0', '0', '0', '0', '0', '0', '0', '0', '0', '0', '0', '0', '0']
Temperatures following the MPC path:
[77.0, 77.10000000000001, 77.2, 77.30000000000001, 77.4, 77.5, 77.575, 77.65, 77.72500000000001, 77.80000000000001, 77.875, 77.95, 78.0, 78.05000000000001, 78.10000000000001, 78.15, 78.17500000000001]
Safety Constraints:
[[54.0, 86.0], [54.0, 86.0], [54.0, 86.0], [54.0, 86.0], [54.0, 86.0], [54.0, 86.0], [54.0, 86.0], [54.0, 86.0], [54.0, 86.0], [54.0, 86.0], [54.0, 86.0], [54.0, 86.0], [54.0, 86.0], [54.0, 86.0], [54.0, 86.0], [54.0, 86.0], [54.0, 86.0]]
Prices:
[0.6, 0.6, 0.6, 0.6, 0.6, 0.6, 0.6, 0.6, 0.6, 0.6, 0.6, 0.6, 0.6, 0.6, 0.6, 0.24, 0.24, 0.24, 0.24, 0.24, 0.24, 0.24, 0.24, 0.24, 0.24, 0.24, 0.24, 0.24, 0.24]
Occ Predictions:
                       0
2018-07-10 17:06:04  1.0
2018-07-10 17:21:04  1.0
2018-07-10 17:36:04  1.0
2018-07-10 17:51:04  1.0
2018-07-10 18:06:04  0.8
2018-07-10 18:21:04  0.8
2018-07-10 18:36:04  0.8
2018-07-10 18:51:04  1.0
2018-07-10 19:06:04  0.8
2018-07-10 19:21:04  0.8
2018-07-10 19:36:04  0.8
2018-07-10 19:51:04  0.6
2018-07-10 20:06:04  0.6
2018-07-10 20:21:04  0.8
2018-07-10 20:36:04  0.4
2018-07-10 20:51:04  0.6
2018-07-10 21:06:04  0.6
Setpoints:
[[74.0, 78.0], [74.0, 78.0], [74.0, 78.0], [60.0, 85.0], [60.0, 85.0], [60.0, 85.0], [60.0, 85.0], [60.0, 85.0], [60.0, 85.0], [60.0, 85.0], [60.0, 85.0], [60.0, 85.0], [60.0, 85.0], [60.0, 85.0], [60.0, 85.0], [60.0, 85.0], [60.0, 85.0]]
Time needed to calculate the shortest path:
43.7471761703


2018-07-11 00:36:04
MPC Actions: ['2', '0', '0', '0', '0', '0', '0', '0', '0', '0', '0', '0', '0', '0', '0', '0']
Temperatures following the MPC path:
[78.0, 77.65, 77.75, 77.825, 77.9, 77.97500000000001, 78.05000000000001, 78.125, 78.2, 78.275, 78.325, 78.375, 78.42500000000001, 78.47500000000001, 78.525, 78.55000000000001, 78.575]
Safety Constraints:
[[54.0, 86.0], [54.0, 86.0], [54.0, 86.0], [54.0, 86.0], [54.0, 86.0], [54.0, 86.0], [54.0, 86.0], [54.0, 86.0], [54.0, 86.0], [54.0, 86.0], [54.0, 86.0], [54.0, 86.0], [54.0, 86.0], [54.0, 86.0], [54.0, 86.0], [54.0, 86.0], [54.0, 86.0]]
Prices:
[0.6, 0.6, 0.6, 0.6, 0.6, 0.6, 0.6, 0.6, 0.6, 0.6, 0.24, 0.24, 0.24, 0.24, 0.24, 0.24, 0.24, 0.24, 0.24, 0.24, 0.24, 0.24, 0.24, 0.24, 0.21]
Occ Predictions:
                       0
2018-07-10 17:21:04  1.0
2018-07-10 17:36:04  1.0
2018-07-10 17:51:04  1.0
2018-07-10 18:06:04  0.8
2018-07-10 18:21:04  0.8
2018-07-10 18:36:04  0.8
2018-07-10 18:51:04  1.0
2018-07-10 19:06:04  0.8
2018-07-10 19:21:04  0.8
2018-07-10 19:36:04  0.8
2018-07-10 19:51:04  0.6
2018-07-10 20:06:04  0.6
2018-07-10 20:21:04  0.8
2018-07-10 20:36:04  0.4
2018-07-10 20:51:04  0.6
2018-07-10 21:06:04  0.6
2018-07-10 21:21:04  0.4
Setpoints:
[[74.0, 78.0], [74.0, 78.0], [60.0, 85.0], [60.0, 85.0], [60.0, 85.0], [60.0, 85.0], [60.0, 85.0], [60.0, 85.0], [60.0, 85.0], [60.0, 85.0], [60.0, 85.0], [60.0, 85.0], [60.0, 85.0], [60.0, 85.0], [60.0, 85.0], [60.0, 85.0], [60.0, 85.0]]
Time needed to calculate the shortest path:
44.4906978607


2018-07-11 00:51:04
MPC Actions: ['0', '0', '0', '0', '0', '0', '0', '0', '0', '0', '0', '0', '0', '0', '0', '0']
Temperatures following the MPC path:
[77.0, 77.10000000000001, 77.2, 77.30000000000001, 77.4, 77.47500000000001, 77.55000000000001, 77.625, 77.7, 77.775, 77.825, 77.875, 77.92500000000001, 77.97500000000001, 78.0, 78.025, 78.05000000000001]
Safety Constraints:
[[54.0, 86.0], [54.0, 86.0], [54.0, 86.0], [54.0, 86.0], [54.0, 86.0], [54.0, 86.0], [54.0, 86.0], [54.0, 86.0], [54.0, 86.0], [54.0, 86.0], [54.0, 86.0], [54.0, 86.0], [54.0, 86.0], [54.0, 86.0], [54.0, 86.0], [54.0, 86.0], [54.0, 86.0]]
Prices:
[0.6, 0.6, 0.6, 0.6, 0.6, 0.24, 0.24, 0.24, 0.24, 0.24, 0.24, 0.24, 0.24, 0.24, 0.24, 0.24, 0.24, 0.24, 0.24, 0.21, 0.21]
Occ Predictions:
                       0
2018-07-10 17:36:04  1.0
2018-07-10 17:51:04  1.0
2018-07-10 18:06:04  0.8
2018-07-10 18:21:04  0.8
2018-07-10 18:36:04  0.8
2018-07-10 18:51:04  1.0
2018-07-10 19:06:04  0.8
2018-07-10 19:21:04  0.8
2018-07-10 19:36:04  0.8
2018-07-10 19:51:04  0.6
2018-07-10 20:06:04  0.6
2018-07-10 20:21:04  0.8
2018-07-10 20:36:04  0.4
2018-07-10 20:51:04  0.6
2018-07-10 21:06:04  0.6
2018-07-10 21:21:04  0.4
2018-07-10 21:36:04  0.4
Setpoints:
[[74.0, 78.0], [60.0, 85.0], [60.0, 85.0], [60.0, 85.0], [60.0, 85.0], [60.0, 85.0], [60.0, 85.0], [60.0, 85.0], [60.0, 85.0], [60.0, 85.0], [60.0, 85.0], [60.0, 85.0], [60.0, 85.0], [60.0, 85.0], [60.0, 85.0], [60.0, 85.0], [60.0, 85.0]]
Time needed to calculate the shortest path:
41.2621600628


2018-07-11 01:06:04
MPC Actions: ['0', '0', '0', '0', '0', '0', '0', '0', '0', '0', '0', '0', '0', '0', '0', '0']
Temperatures following the MPC path:
[78.0, 78.075, 78.15, 78.22500000000001, 78.30000000000001, 78.35000000000001, 78.4, 78.45, 78.5, 78.525, 78.55000000000001, 78.575, 78.60000000000001, 78.625, 78.65, 78.67500000000001, 78.7]
Safety Constraints:
[[54.0, 86.0], [54.0, 86.0], [54.0, 86.0], [54.0, 86.0], [54.0, 86.0], [54.0, 86.0], [54.0, 86.0], [54.0, 86.0], [54.0, 86.0], [54.0, 86.0], [54.0, 86.0], [54.0, 86.0], [54.0, 86.0], [54.0, 86.0], [54.0, 86.0], [54.0, 86.0], [54.0, 86.0]]
Prices:
[0.24, 0.24, 0.24, 0.24, 0.24, 0.24, 0.24, 0.24, 0.24, 0.24, 0.24, 0.24, 0.24, 0.24, 0.21, 0.21, 0.21]
Occ Predictions:
                       0
2018-07-10 17:51:04  1.0
2018-07-10 18:06:04  0.8
2018-07-10 18:21:04  0.8
2018-07-10 18:36:04  0.8
2018-07-10 18:51:04  1.0
2018-07-10 19:06:04  0.8
2018-07-10 19:21:04  0.8
2018-07-10 19:36:04  0.8
2018-07-10 19:51:04  0.6
2018-07-10 20:06:04  0.6
2018-07-10 20:21:04  0.8
2018-07-10 20:36:04  0.4
2018-07-10 20:51:04  0.6
2018-07-10 21:06:04  0.6
2018-07-10 21:21:04  0.4
2018-07-10 21:36:04  0.4
2018-07-10 21:51:04  0.2
Setpoints:
[[60.0, 85.0], [60.0, 85.0], [60.0, 85.0], [60.0, 85.0], [60.0, 85.0], [60.0, 85.0], [60.0, 85.0], [60.0, 85.0], [60.0, 85.0], [60.0, 85.0], [60.0, 85.0], [60.0, 85.0], [60.0, 85.0], [60.0, 85.0], [60.0, 85.0], [60.0, 85.0], [60.0, 85.0]]
Time needed to calculate the shortest path:
46.9263138771


2018-07-11 01:21:04
MPC Actions: ['0', '0', '0', '0', '0', '0', '0', '0', '0', '0', '0', '0', '0', '0', '0', '0']
Temperatures following the MPC path:
[78.0, 78.075, 78.15, 78.22500000000001, 78.275, 78.325, 78.375, 78.42500000000001, 78.45, 78.47500000000001, 78.5, 78.525, 78.55000000000001, 78.575, 78.60000000000001, 78.625, 78.625]
Safety Constraints:
[[54.0, 86.0], [54.0, 86.0], [54.0, 86.0], [54.0, 86.0], [54.0, 86.0], [54.0, 86.0], [54.0, 86.0], [54.0, 86.0], [54.0, 86.0], [54.0, 86.0], [54.0, 86.0], [54.0, 86.0], [54.0, 86.0], [54.0, 86.0], [54.0, 86.0], [54.0, 86.0], [54.0, 86.0]]
Prices:
[0.24, 0.24, 0.24, 0.24, 0.24, 0.24, 0.24, 0.24, 0.24, 0.24, 0.24, 0.24, 0.24, 0.21, 0.21, 0.21, 0.21]
Occ Predictions:
                       0
2018-07-10 18:06:04  1.0
2018-07-10 18:21:04  0.8
2018-07-10 18:36:04  0.8
2018-07-10 18:51:04  1.0
2018-07-10 19:06:04  0.8
2018-07-10 19:21:04  0.8
2018-07-10 19:36:04  0.8
2018-07-10 19:51:04  0.6
2018-07-10 20:06:04  0.6
2018-07-10 20:21:04  0.8
2018-07-10 20:36:04  0.4
2018-07-10 20:51:04  0.6
2018-07-10 21:06:04  0.6
2018-07-10 21:21:04  0.4
2018-07-10 21:36:04  0.4
2018-07-10 21:51:04  0.2
2018-07-10 22:06:04  0.8
Setpoints:
[[60.0, 85.0], [60.0, 85.0], [60.0, 85.0], [60.0, 85.0], [60.0, 85.0], [60.0, 85.0], [60.0, 85.0], [60.0, 85.0], [60.0, 85.0], [60.0, 85.0], [60.0, 85.0], [60.0, 85.0], [60.0, 85.0], [60.0, 85.0], [60.0, 85.0], [60.0, 85.0], [60.0, 85.0]]
Time needed to calculate the shortest path:
46.9056100845


2018-07-11 01:36:04
MPC Actions: ['0', '0', '0', '0', '0', '0', '0', '0', '0', '0', '0', '0', '0', '0', '0', '0']
Temperatures following the MPC path:
[79.0, 79.075, 79.15, 79.2, 79.25, 79.30000000000001, 79.35000000000001, 79.375, 79.4, 79.42500000000001, 79.45, 79.45, 79.45, 79.45, 79.45, 79.45, 79.45]
Safety Constraints:
[[54.0, 86.0], [54.0, 86.0], [54.0, 86.0], [54.0, 86.0], [54.0, 86.0], [54.0, 86.0], [54.0, 86.0], [54.0, 86.0], [54.0, 86.0], [54.0, 86.0], [54.0, 86.0], [54.0, 86.0], [54.0, 86.0], [54.0, 86.0], [54.0, 86.0], [54.0, 86.0], [54.0, 86.0]]
Prices:
[0.24, 0.24, 0.24, 0.24, 0.24, 0.24, 0.24, 0.24, 0.24, 0.24, 0.24, 0.24, 0.21, 0.21, 0.21, 0.21, 0.21]
Occ Predictions:
                       0
2018-07-10 18:21:04  1.0
2018-07-10 18:36:04  0.8
2018-07-10 18:51:04  1.0
2018-07-10 19:06:04  0.8
2018-07-10 19:21:04  0.8
2018-07-10 19:36:04  0.8
2018-07-10 19:51:04  0.6
2018-07-10 20:06:04  0.6
2018-07-10 20:21:04  0.8
2018-07-10 20:36:04  0.4
2018-07-10 20:51:04  0.6
2018-07-10 21:06:04  0.6
2018-07-10 21:21:04  0.4
2018-07-10 21:36:04  0.4
2018-07-10 21:51:04  0.2
2018-07-10 22:06:04  0.8
2018-07-10 22:21:04  0.4
Setpoints:
[[60.0, 85.0], [60.0, 85.0], [60.0, 85.0], [60.0, 85.0], [60.0, 85.0], [60.0, 85.0], [60.0, 85.0], [60.0, 85.0], [60.0, 85.0], [60.0, 85.0], [60.0, 85.0], [60.0, 85.0], [60.0, 85.0], [60.0, 85.0], [60.0, 85.0], [60.0, 85.0], [60.0, 85.0]]
Time needed to calculate the shortest path:
37.6567561626


2018-07-11 01:51:04
MPC Actions: ['0', '0', '0', '0', '0', '0', '0', '0', '0', '0', '0', '0', '0', '0', '0', '0']
Temperatures following the MPC path:
[79.0, 79.075, 79.125, 79.17500000000001, 79.22500000000001, 79.275, 79.30000000000001, 79.325, 79.35000000000001, 79.375, 79.375, 79.375, 79.375, 79.375, 79.375, 79.375, 79.375]
Safety Constraints:
[[54.0, 86.0], [54.0, 86.0], [54.0, 86.0], [54.0, 86.0], [54.0, 86.0], [54.0, 86.0], [54.0, 86.0], [54.0, 86.0], [54.0, 86.0], [54.0, 86.0], [54.0, 86.0], [54.0, 86.0], [54.0, 86.0], [54.0, 86.0], [54.0, 86.0], [54.0, 86.0], [54.0, 86.0]]
Prices:
[0.24, 0.24, 0.24, 0.24, 0.24, 0.24, 0.24, 0.24, 0.24, 0.24, 0.24, 0.21, 0.21, 0.21, 0.21, 0.21, 0.21]
Occ Predictions:
                       0
2018-07-10 18:36:04  1.0
2018-07-10 18:51:04  1.0
2018-07-10 19:06:04  0.8
2018-07-10 19:21:04  0.8
2018-07-10 19:36:04  0.8
2018-07-10 19:51:04  0.6
2018-07-10 20:06:04  0.6
2018-07-10 20:21:04  0.8
2018-07-10 20:36:04  0.4
2018-07-10 20:51:04  0.6
2018-07-10 21:06:04  0.6
2018-07-10 21:21:04  0.4
2018-07-10 21:36:04  0.4
2018-07-10 21:51:04  0.2
2018-07-10 22:06:04  0.8
2018-07-10 22:21:04  0.4
2018-07-10 22:36:04  0.0
Setpoints:
[[60.0, 85.0], [60.0, 85.0], [60.0, 85.0], [60.0, 85.0], [60.0, 85.0], [60.0, 85.0], [60.0, 85.0], [60.0, 85.0], [60.0, 85.0], [60.0, 85.0], [60.0, 85.0], [60.0, 85.0], [60.0, 85.0], [60.0, 85.0], [60.0, 85.0], [60.0, 85.0], [60.0, 85.0]]
Time needed to calculate the shortest path:
42.6195619106


2018-07-11 02:06:04
MPC Actions: ['0', '0', '0', '0', '0', '0', '0', '0', '0', '0', '0', '0', '0', '0', '0', '0']
Temperatures following the MPC path:
[79.0, 79.05000000000001, 79.10000000000001, 79.15, 79.2, 79.22500000000001, 79.25, 79.275, 79.30000000000001, 79.30000000000001, 79.30000000000001, 79.30000000000001, 79.30000000000001, 79.30000000000001, 79.30000000000001, 79.30000000000001, 79.30000000000001]
Safety Constraints:
[[54.0, 86.0], [54.0, 86.0], [54.0, 86.0], [54.0, 86.0], [54.0, 86.0], [54.0, 86.0], [54.0, 86.0], [54.0, 86.0], [54.0, 86.0], [54.0, 86.0], [54.0, 86.0], [54.0, 86.0], [54.0, 86.0], [54.0, 86.0], [54.0, 86.0], [54.0, 86.0], [54.0, 86.0]]
Prices:
[0.24, 0.24, 0.24, 0.24, 0.24, 0.24, 0.24, 0.24, 0.24, 0.24, 0.21, 0.21, 0.21, 0.21, 0.21, 0.21, 0.21]
Occ Predictions:
                       0
2018-07-10 18:51:04  1.0
2018-07-10 19:06:04  0.8
2018-07-10 19:21:04  0.8
2018-07-10 19:36:04  0.8
2018-07-10 19:51:04  0.6
2018-07-10 20:06:04  0.6
2018-07-10 20:21:04  0.8
2018-07-10 20:36:04  0.4
2018-07-10 20:51:04  0.6
2018-07-10 21:06:04  0.6
2018-07-10 21:21:04  0.4
2018-07-10 21:36:04  0.4
2018-07-10 21:51:04  0.2
2018-07-10 22:06:04  0.8
2018-07-10 22:21:04  0.4
2018-07-10 22:36:04  0.0
2018-07-10 22:51:04  0.2
Setpoints:
[[60.0, 85.0], [60.0, 85.0], [60.0, 85.0], [60.0, 85.0], [60.0, 85.0], [60.0, 85.0], [60.0, 85.0], [60.0, 85.0], [60.0, 85.0], [60.0, 85.0], [60.0, 85.0], [60.0, 85.0], [60.0, 85.0], [60.0, 85.0], [60.0, 85.0], [60.0, 85.0], [60.0, 85.0]]
Time needed to calculate the shortest path:
41.9545419216


2018-07-11 02:21:04
MPC Actions: ['0', '0', '0', '0', '0', '0', '0', '0', '0', '0', '0', '0', '0', '0', '0', '0']
Temperatures following the MPC path:
[79.0, 79.05000000000001, 79.10000000000001, 79.15, 79.17500000000001, 79.2, 79.22500000000001, 79.25, 79.25, 79.25, 79.25, 79.25, 79.25, 79.25, 79.25, 79.25, 79.25]
Safety Constraints:
[[54.0, 86.0], [54.0, 86.0], [54.0, 86.0], [54.0, 86.0], [54.0, 86.0], [54.0, 86.0], [54.0, 86.0], [54.0, 86.0], [54.0, 86.0], [54.0, 86.0], [54.0, 86.0], [54.0, 86.0], [54.0, 86.0], [54.0, 86.0], [54.0, 86.0], [54.0, 86.0], [54.0, 86.0]]
Prices:
[0.24, 0.24, 0.24, 0.24, 0.24, 0.24, 0.24, 0.24, 0.24, 0.21, 0.21, 0.21, 0.21, 0.21, 0.21, 0.21, 0.21]
Occ Predictions:
                       0
2018-07-10 19:06:04  1.0
2018-07-10 19:21:04  0.8
2018-07-10 19:36:04  0.8
2018-07-10 19:51:04  0.6
2018-07-10 20:06:04  0.6
2018-07-10 20:21:04  0.8
2018-07-10 20:36:04  0.4
2018-07-10 20:51:04  0.6
2018-07-10 21:06:04  0.6
2018-07-10 21:21:04  0.4
2018-07-10 21:36:04  0.4
2018-07-10 21:51:04  0.2
2018-07-10 22:06:04  0.8
2018-07-10 22:21:04  0.4
2018-07-10 22:36:04  0.0
2018-07-10 22:51:04  0.2
2018-07-10 23:06:04  0.0
Setpoints:
[[60.0, 85.0], [60.0, 85.0], [60.0, 85.0], [60.0, 85.0], [60.0, 85.0], [60.0, 85.0], [60.0, 85.0], [60.0, 85.0], [60.0, 85.0], [60.0, 85.0], [60.0, 85.0], [60.0, 85.0], [60.0, 85.0], [60.0, 85.0], [60.0, 85.0], [60.0, 85.0], [60.0, 85.0]]
Time needed to calculate the shortest path:
43.3057458401


2018-07-11 02:36:04
MPC Actions: ['0', '0', '0', '0', '0', '0', '0', '0', '0', '0', '0', '0', '0', '0', '0', '0']
Temperatures following the MPC path:
[79.0, 79.05000000000001, 79.10000000000001, 79.125, 79.15, 79.17500000000001, 79.2, 79.2, 79.2, 79.2, 79.2, 79.2, 79.2, 79.2, 79.2, 79.2, 79.2]
Safety Constraints:
[[54.0, 86.0], [54.0, 86.0], [54.0, 86.0], [54.0, 86.0], [54.0, 86.0], [54.0, 86.0], [54.0, 86.0], [54.0, 86.0], [54.0, 86.0], [54.0, 86.0], [54.0, 86.0], [54.0, 86.0], [54.0, 86.0], [54.0, 86.0], [54.0, 86.0], [54.0, 86.0], [54.0, 86.0]]
Prices:
[0.24, 0.24, 0.24, 0.24, 0.24, 0.24, 0.24, 0.24, 0.21, 0.21, 0.21, 0.21, 0.21, 0.21, 0.21, 0.21, 0.21]
Occ Predictions:
                       0
2018-07-10 19:21:04  0.0
2018-07-10 19:36:04  0.8
2018-07-10 19:51:04  0.6
2018-07-10 20:06:04  0.6
2018-07-10 20:21:04  0.8
2018-07-10 20:36:04  0.4
2018-07-10 20:51:04  0.6
2018-07-10 21:06:04  0.6
2018-07-10 21:21:04  0.4
2018-07-10 21:36:04  0.4
2018-07-10 21:51:04  0.2
2018-07-10 22:06:04  0.8
2018-07-10 22:21:04  0.4
2018-07-10 22:36:04  0.0
2018-07-10 22:51:04  0.2
2018-07-10 23:06:04  0.0
2018-07-10 23:21:04  0.2
Setpoints:
[[60.0, 85.0], [60.0, 85.0], [60.0, 85.0], [60.0, 85.0], [60.0, 85.0], [60.0, 85.0], [60.0, 85.0], [60.0, 85.0], [60.0, 85.0], [60.0, 85.0], [60.0, 85.0], [60.0, 85.0], [60.0, 85.0], [60.0, 85.0], [60.0, 85.0], [60.0, 85.0], [60.0, 85.0]]
Time needed to calculate the shortest path:
39.3565421104


2018-07-11 02:51:04
MPC Actions: ['0', '0', '0', '0', '0', '0', '0', '0', '0', '0', '0', '0', '0', '0', '0', '0']
Temperatures following the MPC path:
[79.0, 79.05000000000001, 79.075, 79.10000000000001, 79.125, 79.15, 79.15, 79.15, 79.15, 79.15, 79.15, 79.15, 79.15, 79.15, 79.15, 79.15, 79.15]
Safety Constraints:
[[54.0, 86.0], [54.0, 86.0], [54.0, 86.0], [54.0, 86.0], [54.0, 86.0], [54.0, 86.0], [54.0, 86.0], [54.0, 86.0], [54.0, 86.0], [54.0, 86.0], [54.0, 86.0], [54.0, 86.0], [54.0, 86.0], [54.0, 86.0], [54.0, 86.0], [54.0, 86.0], [54.0, 86.0]]
Prices:
[0.24, 0.24, 0.24, 0.24, 0.24, 0.24, 0.24, 0.21, 0.21, 0.21, 0.21, 0.21, 0.21, 0.21, 0.21, 0.21, 0.21]
Occ Predictions:
                       0
2018-07-10 19:36:04  0.0
2018-07-10 19:51:04  0.6
2018-07-10 20:06:04  0.6
2018-07-10 20:21:04  0.8
2018-07-10 20:36:04  0.4
2018-07-10 20:51:04  0.6
2018-07-10 21:06:04  0.6
2018-07-10 21:21:04  0.4
2018-07-10 21:36:04  0.4
2018-07-10 21:51:04  0.2
2018-07-10 22:06:04  0.8
2018-07-10 22:21:04  0.4
2018-07-10 22:36:04  0.0
2018-07-10 22:51:04  0.2
2018-07-10 23:06:04  0.0
2018-07-10 23:21:04  0.2
2018-07-10 23:36:04  0.2
Setpoints:
[[60.0, 85.0], [60.0, 85.0], [60.0, 85.0], [60.0, 85.0], [60.0, 85.0], [60.0, 85.0], [60.0, 85.0], [60.0, 85.0], [60.0, 85.0], [60.0, 85.0], [60.0, 85.0], [60.0, 85.0], [60.0, 85.0], [60.0, 85.0], [60.0, 85.0], [60.0, 85.0], [60.0, 85.0]]
Time needed to calculate the shortest path:
41.0775220394


2018-07-11 03:06:04
MPC Actions: ['0', '0', '0', '0', '0', '0', '0', '0', '0', '0', '0', '0', '0', '0', '0', '0']
Temperatures following the MPC path:
[79.0, 79.025, 79.05000000000001, 79.075, 79.10000000000001, 79.10000000000001, 79.10000000000001, 79.10000000000001, 79.10000000000001, 79.10000000000001, 79.10000000000001, 79.10000000000001, 79.10000000000001, 79.10000000000001, 79.10000000000001, 79.10000000000001, 79.10000000000001]
Safety Constraints:
[[54.0, 86.0], [54.0, 86.0], [54.0, 86.0], [54.0, 86.0], [54.0, 86.0], [54.0, 86.0], [54.0, 86.0], [54.0, 86.0], [54.0, 86.0], [54.0, 86.0], [54.0, 86.0], [54.0, 86.0], [54.0, 86.0], [54.0, 86.0], [54.0, 86.0], [54.0, 86.0], [54.0, 86.0]]
Prices:
[0.24, 0.24, 0.24, 0.24, 0.24, 0.24, 0.21, 0.21, 0.21, 0.21, 0.21, 0.21, 0.21, 0.21, 0.21, 0.21, 0.21]
Occ Predictions:
                       0
2018-07-10 19:51:04  0.0
2018-07-10 20:06:04  0.6
2018-07-10 20:21:04  0.8
2018-07-10 20:36:04  0.4
2018-07-10 20:51:04  0.6
2018-07-10 21:06:04  0.6
2018-07-10 21:21:04  0.4
2018-07-10 21:36:04  0.4
2018-07-10 21:51:04  0.2
2018-07-10 22:06:04  0.8
2018-07-10 22:21:04  0.4
2018-07-10 22:36:04  0.0
2018-07-10 22:51:04  0.2
2018-07-10 23:06:04  0.0
2018-07-10 23:21:04  0.2
2018-07-10 23:36:04  0.2
2018-07-10 23:51:04  0.4
Setpoints:
[[60.0, 85.0], [60.0, 85.0], [60.0, 85.0], [60.0, 85.0], [60.0, 85.0], [60.0, 85.0], [60.0, 85.0], [60.0, 85.0], [60.0, 85.0], [60.0, 85.0], [60.0, 85.0], [60.0, 85.0], [60.0, 85.0], [60.0, 85.0], [60.0, 85.0], [60.0, 85.0], [60.0, 85.0]]
Time needed to calculate the shortest path:
42.9958479404


2018-07-11 03:21:04
MPC Actions: ['0', '0', '0', '0', '0', '0', '0', '0', '0', '0', '0', '0', '0', '0', '0', '0']
Temperatures following the MPC path:
[79.0, 79.025, 79.05000000000001, 79.075, 79.075, 79.075, 79.075, 79.075, 79.075, 79.075, 79.075, 79.075, 79.075, 79.075, 79.075, 79.075, 79.075]
Safety Constraints:
[[54.0, 86.0], [54.0, 86.0], [54.0, 86.0], [54.0, 86.0], [54.0, 86.0], [54.0, 86.0], [54.0, 86.0], [54.0, 86.0], [54.0, 86.0], [54.0, 86.0], [54.0, 86.0], [54.0, 86.0], [54.0, 86.0], [54.0, 86.0], [54.0, 86.0], [54.0, 86.0], [54.0, 86.0]]
Prices:
[0.24, 0.24, 0.24, 0.24, 0.24, 0.21, 0.21, 0.21, 0.21, 0.21, 0.21, 0.21, 0.21, 0.21, 0.21, 0.21, 0.21]
Occ Predictions:
                       0
2018-07-10 20:06:04  1.0
2018-07-10 20:21:04  0.8
2018-07-10 20:36:04  0.4
2018-07-10 20:51:04  0.6
2018-07-10 21:06:04  0.6
2018-07-10 21:21:04  0.4
2018-07-10 21:36:04  0.4
2018-07-10 21:51:04  0.2
2018-07-10 22:06:04  0.8
2018-07-10 22:21:04  0.4
2018-07-10 22:36:04  0.0
2018-07-10 22:51:04  0.2
2018-07-10 23:06:04  0.0
2018-07-10 23:21:04  0.2
2018-07-10 23:36:04  0.2
2018-07-10 23:51:04  0.4
2018-07-11 00:06:04  0.4
Setpoints:
[[60.0, 85.0], [60.0, 85.0], [60.0, 85.0], [60.0, 85.0], [60.0, 85.0], [60.0, 85.0], [60.0, 85.0], [60.0, 85.0], [60.0, 85.0], [60.0, 85.0], [60.0, 85.0], [60.0, 85.0], [60.0, 85.0], [60.0, 85.0], [60.0, 85.0], [60.0, 85.0], [60.0, 85.0]]
Time needed to calculate the shortest path:
42.4523899555


2018-07-11 03:36:04
MPC Actions: ['0', '0', '0', '0', '0', '0', '0', '0', '0', '0', '0', '0', '0', '0', '0', '0']
Temperatures following the MPC path:
[80.0, 80.0, 80.0, 80.0, 80.0, 80.0, 80.0, 79.97500000000001, 79.95, 79.92500000000001, 79.92500000000001, 79.9, 79.875, 79.85000000000001, 79.825, 79.80000000000001, 79.775]
Safety Constraints:
[[54.0, 86.0], [54.0, 86.0], [54.0, 86.0], [54.0, 86.0], [54.0, 86.0], [54.0, 86.0], [54.0, 86.0], [54.0, 86.0], [54.0, 86.0], [54.0, 86.0], [54.0, 86.0], [54.0, 86.0], [54.0, 86.0], [54.0, 86.0], [54.0, 86.0], [54.0, 86.0], [54.0, 86.0]]
Prices:
[0.24, 0.24, 0.24, 0.24, 0.21, 0.21, 0.21, 0.21, 0.21, 0.21, 0.21, 0.21, 0.21, 0.21, 0.21, 0.21, 0.21]
Occ Predictions:
                       0
2018-07-10 20:21:04  1.0
2018-07-10 20:36:04  0.4
2018-07-10 20:51:04  0.6
2018-07-10 21:06:04  0.6
2018-07-10 21:21:04  0.4
2018-07-10 21:36:04  0.4
2018-07-10 21:51:04  0.2
2018-07-10 22:06:04  0.8
2018-07-10 22:21:04  0.4
2018-07-10 22:36:04  0.0
2018-07-10 22:51:04  0.2
2018-07-10 23:06:04  0.0
2018-07-10 23:21:04  0.2
2018-07-10 23:36:04  0.2
2018-07-10 23:51:04  0.4
2018-07-11 00:06:04  0.4
2018-07-11 00:21:04  0.4
Setpoints:
[[60.0, 85.0], [60.0, 85.0], [60.0, 85.0], [60.0, 85.0], [60.0, 85.0], [60.0, 85.0], [60.0, 85.0], [60.0, 85.0], [60.0, 85.0], [60.0, 85.0], [60.0, 85.0], [60.0, 85.0], [60.0, 85.0], [60.0, 85.0], [60.0, 85.0], [60.0, 85.0], [60.0, 85.0]]
Time needed to calculate the shortest path:
57.1407511234


2018-07-11 03:51:04
MPC Actions: ['0', '0', '0', '0', '0', '0', '0', '0', '0', '0', '0', '0', '0', '0', '0', '0']
Temperatures following the MPC path:
[79.0, 79.025, 79.025, 79.025, 79.025, 79.025, 79.025, 79.025, 79.025, 79.025, 79.025, 79.025, 79.025, 79.025, 79.025, 79.025, 79.025]
Safety Constraints:
[[54.0, 86.0], [54.0, 86.0], [54.0, 86.0], [54.0, 86.0], [54.0, 86.0], [54.0, 86.0], [54.0, 86.0], [54.0, 86.0], [54.0, 86.0], [54.0, 86.0], [54.0, 86.0], [54.0, 86.0], [54.0, 86.0], [54.0, 86.0], [54.0, 86.0], [54.0, 86.0], [54.0, 86.0]]
Prices:
[0.24, 0.24, 0.24, 0.21, 0.21, 0.21, 0.21, 0.21, 0.21, 0.21, 0.21, 0.21, 0.21, 0.21, 0.21, 0.21, 0.21]
Occ Predictions:
                       0
2018-07-10 20:36:04  1.0
2018-07-10 20:51:04  0.6
2018-07-10 21:06:04  0.6
2018-07-10 21:21:04  0.4
2018-07-10 21:36:04  0.4
2018-07-10 21:51:04  0.2
2018-07-10 22:06:04  0.8
2018-07-10 22:21:04  0.4
2018-07-10 22:36:04  0.0
2018-07-10 22:51:04  0.2
2018-07-10 23:06:04  0.0
2018-07-10 23:21:04  0.2
2018-07-10 23:36:04  0.2
2018-07-10 23:51:04  0.4
2018-07-11 00:06:04  0.4
2018-07-11 00:21:04  0.4
2018-07-11 00:36:04  0.4
Setpoints:
[[60.0, 85.0], [60.0, 85.0], [60.0, 85.0], [60.0, 85.0], [60.0, 85.0], [60.0, 85.0], [60.0, 85.0], [60.0, 85.0], [60.0, 85.0], [60.0, 85.0], [60.0, 85.0], [60.0, 85.0], [60.0, 85.0], [60.0, 85.0], [60.0, 85.0], [60.0, 85.0], [60.0, 85.0]]
Time needed to calculate the shortest path:
43.051087141


2018-07-11 04:06:04
MPC Actions: ['0', '0', '0', '0', '0', '0', '0', '0', '0', '0', '0', '0', '0', '0', '0', '0']
Temperatures following the MPC path:
[80.0, 80.0, 80.0, 80.0, 80.0, 79.97500000000001, 79.95, 79.92500000000001, 79.92500000000001, 79.9, 79.875, 79.85000000000001, 79.825, 79.80000000000001, 79.775, 79.75, 79.72500000000001]
Safety Constraints:
[[54.0, 86.0], [54.0, 86.0], [54.0, 86.0], [54.0, 86.0], [54.0, 86.0], [54.0, 86.0], [54.0, 86.0], [54.0, 86.0], [54.0, 86.0], [54.0, 86.0], [54.0, 86.0], [54.0, 86.0], [54.0, 86.0], [54.0, 86.0], [54.0, 86.0], [54.0, 86.0], [54.0, 86.0]]
Prices:
[0.24, 0.24, 0.21, 0.21, 0.21, 0.21, 0.21, 0.21, 0.21, 0.21, 0.21, 0.21, 0.21, 0.21, 0.21, 0.21, 0.21]
Occ Predictions:
                       0
2018-07-10 20:51:04  1.0
2018-07-10 21:06:04  0.6
2018-07-10 21:21:04  0.4
2018-07-10 21:36:04  0.4
2018-07-10 21:51:04  0.2
2018-07-10 22:06:04  0.8
2018-07-10 22:21:04  0.4
2018-07-10 22:36:04  0.0
2018-07-10 22:51:04  0.2
2018-07-10 23:06:04  0.0
2018-07-10 23:21:04  0.2
2018-07-10 23:36:04  0.2
2018-07-10 23:51:04  0.4
2018-07-11 00:06:04  0.4
2018-07-11 00:21:04  0.4
2018-07-11 00:36:04  0.4
2018-07-11 00:51:04  0.2
Setpoints:
[[60.0, 85.0], [60.0, 85.0], [60.0, 85.0], [60.0, 85.0], [60.0, 85.0], [60.0, 85.0], [60.0, 85.0], [60.0, 85.0], [60.0, 85.0], [60.0, 85.0], [60.0, 85.0], [60.0, 85.0], [60.0, 85.0], [60.0, 85.0], [60.0, 85.0], [60.0, 85.0], [60.0, 85.0]]
Time needed to calculate the shortest path:
65.1412959099


2018-07-11 04:21:04
MPC Actions: ['0', '0', '0', '0', '0', '0', '0', '0', '0', '0', '0', '0', '0', '0', '0', '0']
Temperatures following the MPC path:
[80.0, 80.0, 80.0, 80.0, 79.97500000000001, 79.95, 79.92500000000001, 79.9, 79.875, 79.85000000000001, 79.825, 79.80000000000001, 79.775, 79.75, 79.72500000000001, 79.7, 79.67500000000001]
Safety Constraints:
[[54.0, 86.0], [54.0, 86.0], [54.0, 86.0], [54.0, 86.0], [54.0, 86.0], [54.0, 86.0], [54.0, 86.0], [54.0, 86.0], [54.0, 86.0], [54.0, 86.0], [54.0, 86.0], [54.0, 86.0], [54.0, 86.0], [54.0, 86.0], [54.0, 86.0], [54.0, 86.0], [54.0, 86.0]]
Prices:
[0.24, 0.21, 0.21, 0.21, 0.21, 0.21, 0.21, 0.21, 0.21, 0.21, 0.21, 0.21, 0.21, 0.21, 0.21, 0.21, 0.21]
Occ Predictions:
                       0
2018-07-10 21:06:04  1.0
2018-07-10 21:21:04  0.4
2018-07-10 21:36:04  0.4
2018-07-10 21:51:04  0.2
2018-07-10 22:06:04  0.8
2018-07-10 22:21:04  0.4
2018-07-10 22:36:04  0.0
2018-07-10 22:51:04  0.2
2018-07-10 23:06:04  0.0
2018-07-10 23:21:04  0.2
2018-07-10 23:36:04  0.2
2018-07-10 23:51:04  0.4
2018-07-11 00:06:04  0.4
2018-07-11 00:21:04  0.4
2018-07-11 00:36:04  0.4
2018-07-11 00:51:04  0.2
2018-07-11 01:06:04  0.4
Setpoints:
[[60.0, 85.0], [60.0, 85.0], [60.0, 85.0], [60.0, 85.0], [60.0, 85.0], [60.0, 85.0], [60.0, 85.0], [60.0, 85.0], [60.0, 85.0], [60.0, 85.0], [60.0, 85.0], [60.0, 85.0], [60.0, 85.0], [60.0, 85.0], [60.0, 85.0], [60.0, 85.0], [60.0, 85.0]]
Time needed to calculate the shortest path:
70.1384301186


2018-07-11 04:36:04
MPC Actions: ['0', '0', '0', '0', '0', '0', '0', '0', '0', '0', '0', '0', '0', '0', '0', '0']
Temperatures following the MPC path:
[79.0, 79.0, 79.0, 79.0, 79.0, 79.0, 79.0, 79.0, 79.0, 79.0, 79.0, 78.97500000000001, 78.95, 78.92500000000001, 78.9, 78.875, 78.85000000000001]
Safety Constraints:
[[54.0, 86.0], [54.0, 86.0], [54.0, 86.0], [54.0, 86.0], [54.0, 86.0], [54.0, 86.0], [54.0, 86.0], [54.0, 86.0], [54.0, 86.0], [54.0, 86.0], [54.0, 86.0], [54.0, 86.0], [54.0, 86.0], [54.0, 86.0], [54.0, 86.0], [54.0, 86.0], [54.0, 86.0]]
Prices:
[0.21, 0.21, 0.21, 0.21, 0.21, 0.21, 0.21, 0.21, 0.21, 0.21, 0.21, 0.21, 0.21, 0.21, 0.21, 0.21, 0.21]
Occ Predictions:
                       0
2018-07-10 21:21:04  0.0
2018-07-10 21:36:04  0.4
2018-07-10 21:51:04  0.2
2018-07-10 22:06:04  0.8
2018-07-10 22:21:04  0.4
2018-07-10 22:36:04  0.0
2018-07-10 22:51:04  0.2
2018-07-10 23:06:04  0.0
2018-07-10 23:21:04  0.2
2018-07-10 23:36:04  0.2
2018-07-10 23:51:04  0.4
2018-07-11 00:06:04  0.4
2018-07-11 00:21:04  0.4
2018-07-11 00:36:04  0.4
2018-07-11 00:51:04  0.2
2018-07-11 01:06:04  0.4
2018-07-11 01:21:04  0.0
Setpoints:
[[60.0, 85.0], [60.0, 85.0], [60.0, 85.0], [60.0, 85.0], [60.0, 85.0], [60.0, 85.0], [60.0, 85.0], [60.0, 85.0], [60.0, 85.0], [60.0, 85.0], [60.0, 85.0], [60.0, 85.0], [60.0, 85.0], [60.0, 85.0], [60.0, 85.0], [60.0, 85.0], [60.0, 85.0]]
Time needed to calculate the shortest path:
51.0928449631


2018-07-11 04:51:04
MPC Actions: ['0', '0', '0', '0', '0', '0', '0', '0', '0', '0', '0', '0', '0', '0', '0', '0']
Temperatures following the MPC path:
[79.0, 79.0, 79.0, 79.0, 79.0, 79.0, 79.0, 79.0, 79.0, 79.0, 78.97500000000001, 78.95, 78.92500000000001, 78.9, 78.875, 78.85000000000001, 78.825]
Safety Constraints:
[[54.0, 86.0], [54.0, 86.0], [54.0, 86.0], [54.0, 86.0], [54.0, 86.0], [54.0, 86.0], [54.0, 86.0], [54.0, 86.0], [54.0, 86.0], [54.0, 86.0], [54.0, 86.0], [54.0, 86.0], [54.0, 86.0], [54.0, 86.0], [54.0, 86.0], [54.0, 86.0], [54.0, 86.0]]
Prices:
[0.21, 0.21, 0.21, 0.21, 0.21, 0.21, 0.21, 0.21, 0.21, 0.21, 0.21, 0.21, 0.21, 0.21, 0.21, 0.21, 0.21]
Occ Predictions:
                       0
2018-07-10 21:36:04  0.0
2018-07-10 21:51:04  0.2
2018-07-10 22:06:04  0.8
2018-07-10 22:21:04  0.4
2018-07-10 22:36:04  0.0
2018-07-10 22:51:04  0.2
2018-07-10 23:06:04  0.0
2018-07-10 23:21:04  0.2
2018-07-10 23:36:04  0.2
2018-07-10 23:51:04  0.4
2018-07-11 00:06:04  0.4
2018-07-11 00:21:04  0.4
2018-07-11 00:36:04  0.4
2018-07-11 00:51:04  0.2
2018-07-11 01:06:04  0.4
2018-07-11 01:21:04  0.0
2018-07-11 01:36:04  0.0
Setpoints:
[[60.0, 85.0], [60.0, 85.0], [60.0, 85.0], [60.0, 85.0], [60.0, 85.0], [60.0, 85.0], [60.0, 85.0], [60.0, 85.0], [60.0, 85.0], [60.0, 85.0], [60.0, 85.0], [60.0, 85.0], [60.0, 85.0], [60.0, 85.0], [60.0, 85.0], [60.0, 85.0], [60.0, 85.0]]
Time needed to calculate the shortest path:
54.2868289948


2018-07-11 05:06:04
MPC Actions: ['0', '0', '0', '0', '0', '0', '0', '0', '0', '0', '0', '0', '0', '0', '0', '0']
Temperatures following the MPC path:
[79.0, 79.0, 79.0, 79.0, 79.0, 79.0, 79.0, 79.0, 79.0, 78.97500000000001, 78.95, 78.92500000000001, 78.9, 78.875, 78.85000000000001, 78.825, 78.80000000000001]
Safety Constraints:
[[54.0, 86.0], [54.0, 86.0], [54.0, 86.0], [54.0, 86.0], [54.0, 86.0], [54.0, 86.0], [54.0, 86.0], [54.0, 86.0], [54.0, 86.0], [54.0, 86.0], [54.0, 86.0], [54.0, 86.0], [54.0, 86.0], [54.0, 86.0], [54.0, 86.0], [54.0, 86.0], [54.0, 86.0]]
Prices:
[0.21, 0.21, 0.21, 0.21, 0.21, 0.21, 0.21, 0.21, 0.21, 0.21, 0.21, 0.21, 0.21, 0.21, 0.21, 0.21, 0.21]
Occ Predictions:
                       0
2018-07-10 21:51:04  1.0
2018-07-10 22:06:04  0.8
2018-07-10 22:21:04  0.4
2018-07-10 22:36:04  0.0
2018-07-10 22:51:04  0.2
2018-07-10 23:06:04  0.0
2018-07-10 23:21:04  0.2
2018-07-10 23:36:04  0.2
2018-07-10 23:51:04  0.4
2018-07-11 00:06:04  0.4
2018-07-11 00:21:04  0.4
2018-07-11 00:36:04  0.4
2018-07-11 00:51:04  0.2
2018-07-11 01:06:04  0.4
2018-07-11 01:21:04  0.0
2018-07-11 01:36:04  0.0
[...]
2018-07-27 01:48:06  0.0
2018-07-27 02:03:06  0.0
2018-07-27 02:18:06  0.0
Setpoints:
[[60.0, 85.0], [60.0, 85.0], [60.0, 85.0], [60.0, 85.0], [60.0, 85.0]]
Time needed to calculate the shortest path:
9.58170008659


2018-07-27 08:48:06
MPC Actions: ['0', '0', '0', '0']
Temperatures following the MPC path:
[77.1258799694755, 77.10000000000001, 77.10000000000001, 77.10000000000001, 77.10000000000001]
Safety Constraints:
[[54.0, 86.0], [54.0, 86.0], [54.0, 86.0], [54.0, 86.0], [54.0, 86.0]]
Prices:
[0.21, 0.21, 0.21, 0.21, 0.21]
Occ Predictions:
                       0
2018-07-27 01:33:06  0.0
2018-07-27 01:48:06  0.0
2018-07-27 02:03:06  0.0
2018-07-27 02:18:06  0.0
2018-07-27 02:33:06  0.0
Setpoints:
[[60.0, 85.0], [60.0, 85.0], [60.0, 85.0], [60.0, 85.0], [60.0, 85.0]]
Time needed to calculate the shortest path:
9.48001217842


2018-07-27 09:03:06
MPC Actions: ['0', '0', '0', '0']
Temperatures following the MPC path:
[77.13386723435964, 77.10000000000001, 77.10000000000001, 77.10000000000001, 77.10000000000001]
Safety Constraints:
[[54.0, 86.0], [54.0, 86.0], [54.0, 86.0], [54.0, 86.0], [54.0, 86.0]]
Prices:
[0.21, 0.21, 0.21, 0.21, 0.21]
Occ Predictions:
                       0
2018-07-27 01:48:06  0.0
2018-07-27 02:03:06  0.0
2018-07-27 02:18:06  0.0
2018-07-27 02:33:06  0.0
2018-07-27 02:48:06  0.0
Setpoints:
[[60.0, 85.0], [60.0, 85.0], [60.0, 85.0], [60.0, 85.0], [60.0, 85.0]]
Time needed to calculate the shortest path:
8.7337038517


2018-07-27 09:18:06
MPC Actions: ['0', '0', '0', '0']
Temperatures following the MPC path:
[77.18951864819634, 77.2, 77.2, 77.2, 77.2]
Safety Constraints:
[[54.0, 86.0], [54.0, 86.0], [54.0, 86.0], [54.0, 86.0], [54.0, 86.0]]
Prices:
[0.21, 0.21, 0.21, 0.21, 0.21]
Occ Predictions:
                       0
2018-07-27 02:03:06  0.0
2018-07-27 02:18:06  0.0
2018-07-27 02:33:06  0.0
2018-07-27 02:48:06  0.0
2018-07-27 03:03:06  0.0
Setpoints:
[[60.0, 85.0], [60.0, 85.0], [60.0, 85.0], [60.0, 85.0], [60.0, 85.0]]
Time needed to calculate the shortest path:
8.78567910194


2018-07-27 09:33:06
MPC Actions: ['0', '0', '0', '0']
Temperatures following the MPC path:
[77.35241742087051, 77.35000000000001, 77.35000000000001, 77.35000000000001, 77.35000000000001]
Safety Constraints:
[[54.0, 86.0], [54.0, 86.0], [54.0, 86.0], [54.0, 86.0], [54.0, 86.0]]
Prices:
[0.21, 0.21, 0.21, 0.21, 0.21]
Occ Predictions:
                       0
2018-07-27 02:18:06  0.0
2018-07-27 02:33:06  0.0
2018-07-27 02:48:06  0.0
2018-07-27 03:03:06  0.0
2018-07-27 03:18:06  0.0
Setpoints:
[[60.0, 85.0], [60.0, 85.0], [60.0, 85.0], [60.0, 85.0], [60.0, 85.0]]
Time needed to calculate the shortest path:
8.58050203323


2018-04-03 00:00:00
MPC Actions: ['0', '0', '0', '0']
Temperatures following the MPC path:
[76.0, 76.0, 76.0, 76.0, 76.0]
Safety Constraints:
[[54.0, 86.0], [54.0, 86.0], [54.0, 86.0], [54.0, 86.0], [54.0, 86.0]]
Prices:
[0.6, 0.6, 0.6, 0.6, 0.6, 0.6, 0.6, 0.6, 0.6, 0.6, 0.6, 0.6, 0.6, 0.6, 0.6, 0.6, 0.6, 0.6, 0.6, 0.6, 0.24]
Occ Predictions:
[1, 1, 1, 1, 0]
Setpoints:
[[74.0, 78.0], [74.0, 78.0], [74.0, 78.0], [74.0, 78.0], [60.0, 85.0]]
Time needed to calculate the shortest path:
5.46751499176


2018-04-03 00:15:00
MPC Actions: ['0', '0', '0', '0']
Temperatures following the MPC path:
[75.91691840348882, 75.9, 75.9, 75.9, 75.9]
Safety Constraints:
[[54.0, 86.0], [54.0, 86.0], [54.0, 86.0], [54.0, 86.0], [54.0, 86.0]]
Prices:
[0.6, 0.6, 0.6, 0.6, 0.6, 0.6, 0.6, 0.6, 0.6, 0.6, 0.6, 0.6, 0.6, 0.6, 0.6, 0.24, 0.24]
Occ Predictions:
[1, 1, 1, 0, 0]
Setpoints:
[[74.0, 78.0], [74.0, 78.0], [74.0, 78.0], [60.0, 85.0], [60.0, 85.0]]
Time needed to calculate the shortest path:
6.0125169754


2018-04-03 00:30:00
MPC Actions: ['0', '0', '0', '0']
Temperatures following the MPC path:
[76.09520142184424, 76.10000000000001, 76.10000000000001, 76.10000000000001, 76.10000000000001]
Safety Constraints:
[[54.0, 86.0], [54.0, 86.0], [54.0, 86.0], [54.0, 86.0], [54.0, 86.0]]
Prices:
[0.6, 0.6, 0.6, 0.6, 0.6, 0.6, 0.6, 0.6, 0.6, 0.6, 0.24, 0.24, 0.24]
Occ Predictions:
[1, 1, 0, 0, 0]
Setpoints:
[[74.0, 78.0], [74.0, 78.0], [60.0, 85.0], [60.0, 85.0], [60.0, 85.0]]
Time needed to calculate the shortest path:
5.9426419735


2018-07-27 15:22:50
MPC Actions: ['0', '0', '0', '0']
Temperatures following the MPC path:
[76.0, 76.0, 76.0, 76.0, 76.0]
Safety Constraints:
[[54.0, 86.0], [54.0, 86.0], [54.0, 86.0], [54.0, 86.0], [54.0, 86.0]]
Prices:
[0.21, 0.24, 0.24, 0.24, 0.24]
Occ Predictions:
[1, 1, 1, 1, 1]
Setpoints:
[[74.0, 78.0], [74.0, 78.0], [74.0, 78.0], [74.0, 78.0], [74.0, 78.0]]
Time needed to calculate the shortest path:
7.07054185867


2018-07-27 15:37:50
MPC Actions: ['0', '0', '0', '0']
Temperatures following the MPC path:
[75.90764530047171, 75.9, 75.9, 75.9, 75.9]
Safety Constraints:
[[54.0, 86.0], [54.0, 86.0], [54.0, 86.0], [54.0, 86.0], [54.0, 86.0]]
Prices:
[0.24, 0.24, 0.24, 0.24, 0.24]
Occ Predictions:
[1, 1, 1, 1, 1]
Setpoints:
[[74.0, 78.0], [74.0, 78.0], [74.0, 78.0], [74.0, 78.0], [74.0, 78.0]]
Time needed to calculate the shortest path:
5.28268694878


2018-07-27 15:40:16
MPC Actions: ['0', '0', '0', '0']
Temperatures following the MPC path:
[76.0, 76.0, 76.0, 76.0, 76.0]
Safety Constraints:
[[54.0, 86.0], [54.0, 86.0], [54.0, 86.0], [54.0, 86.0], [54.0, 86.0]]
Prices:
[0.24, 0.24, 0.24, 0.24, 0.24]
Occ Predictions:
[1, 1, 1, 1, 1]
Setpoints:
[[74.0, 78.0], [74.0, 78.0], [74.0, 78.0], [74.0, 78.0], [74.0, 78.0]]
Time needed to calculate the shortest path:
5.4683611393


2018-07-27 15:55:16
MPC Actions: ['0', '0', '0', '0']
Temperatures following the MPC path:
[75.80833716734256, 75.8, 75.8, 75.8, 75.8]
Safety Constraints:
[[54.0, 86.0], [54.0, 86.0], [54.0, 86.0], [54.0, 86.0], [54.0, 86.0]]
Prices:
[0.24, 0.24, 0.24, 0.24, 0.24]
Occ Predictions:
[1, 1, 1, 1, 1]
Setpoints:
[[74.0, 78.0], [74.0, 78.0], [74.0, 78.0], [74.0, 78.0], [74.0, 78.0]]
Time needed to calculate the shortest path:
6.56174588203


2018-07-27 16:10:16
MPC Actions: ['0', '0', '0', '0']
Temperatures following the MPC path:
[75.80882162167116, 75.8, 75.8, 75.8, 75.8]
Safety Constraints:
[[54.0, 86.0], [54.0, 86.0], [54.0, 86.0], [54.0, 86.0], [54.0, 86.0]]
Prices:
[0.24, 0.24, 0.24, 0.24, 0.24]
Occ Predictions:
[1, 1, 1, 1, 1]
Setpoints:
[[74.0, 78.0], [74.0, 78.0], [74.0, 78.0], [74.0, 78.0], [74.0, 78.0]]
Time needed to calculate the shortest path:
7.68815493584


2018-07-27 16:25:16
MPC Actions: ['0', '0', '0', '0']
Temperatures following the MPC path:
[76.05541351137099, 76.05, 76.05, 76.05, 76.05]
Safety Constraints:
[[54.0, 86.0], [54.0, 86.0], [54.0, 86.0], [54.0, 86.0], [54.0, 86.0]]
Prices:
[0.24, 0.24, 0.24, 0.24, 0.24]
Occ Predictions:
[1, 1, 1, 1, 1]
Setpoints:
[[74.0, 78.0], [74.0, 78.0], [74.0, 78.0], [74.0, 78.0], [74.0, 78.0]]
Time needed to calculate the shortest path:
2.19779491425


2018-07-27 15:41:20
MPC Actions: ['0', '0', '0', '0']
Temperatures following the MPC path:
[76.0, 76.0, 76.0, 76.0, 76.0]
Safety Constraints:
[[54.0, 86.0], [54.0, 86.0], [54.0, 86.0], [54.0, 86.0], [54.0, 86.0]]
Prices:
[0.24, 0.24, 0.24, 0.24, 0.24]
Occ Predictions:
[1, 1, 1, 1, 1]
Setpoints:
[[74.0, 78.0], [74.0, 78.0], [74.0, 78.0], [74.0, 78.0], [74.0, 78.0]]
Time needed to calculate the shortest path:
6.28921413422


2018-07-27 15:56:20
MPC Actions: ['0', '0', '0', '0']
Temperatures following the MPC path:
[76.02970886632714, 76.0, 76.0, 76.0, 76.0]
Safety Constraints:
[[54.0, 86.0], [54.0, 86.0], [54.0, 86.0], [54.0, 86.0], [54.0, 86.0]]
Prices:
[0.24, 0.24, 0.24, 0.24, 0.24]
Occ Predictions:
[1, 1, 1, 1, 1]
Setpoints:
[[74.0, 78.0], [74.0, 78.0], [74.0, 78.0], [74.0, 78.0], [74.0, 78.0]]
Time needed to calculate the shortest path:
7.20889997482


2018-07-27 16:11:20
MPC Actions: ['0', '0', '0', '0']
Temperatures following the MPC path:
[76.11136087224821, 76.10000000000001, 76.10000000000001, 76.10000000000001, 76.10000000000001]
Safety Constraints:
[[54.0, 86.0], [54.0, 86.0], [54.0, 86.0], [54.0, 86.0], [54.0, 86.0]]
Prices:
[0.24, 0.24, 0.24, 0.24, 0.24]
Occ Predictions:
[1, 1, 1, 1, 1]
Setpoints:
[[74.0, 78.0], [74.0, 78.0], [74.0, 78.0], [74.0, 78.0], [74.0, 78.0]]
Time needed to calculate the shortest path:
6.16354203224


2018-07-27 16:26:20
MPC Actions: ['0', '0', '0', '0']
Temperatures following the MPC path:
[76.4194392724505, 76.4, 76.4, 76.4, 76.4]
Safety Constraints:
[[54.0, 86.0], [54.0, 86.0], [54.0, 86.0], [54.0, 86.0], [54.0, 86.0]]
Prices:
[0.24, 0.24, 0.24, 0.24, 0.24]
Occ Predictions:
[1, 1, 1, 1, 1]
Setpoints:
[[74.0, 78.0], [74.0, 78.0], [74.0, 78.0], [74.0, 78.0], [74.0, 78.0]]
Time needed to calculate the shortest path:
3.31305289268


2018-07-27 16:41:20
MPC Actions: ['0', '0', '0', '0']
Temperatures following the MPC path:
[76.114835197006, 76.10000000000001, 76.10000000000001, 76.10000000000001, 76.10000000000001]
Safety Constraints:
[[54.0, 86.0], [54.0, 86.0], [54.0, 86.0], [54.0, 86.0], [54.0, 86.0]]
Prices:
[0.24, 0.24, 0.24, 0.24, 0.24]
Occ Predictions:
[1, 1, 1, 1, 1]
Setpoints:
[[74.0, 78.0], [74.0, 78.0], [74.0, 78.0], [74.0, 78.0], [74.0, 78.0]]
Time needed to calculate the shortest path:
3.96318387985


2018-07-27 20:56:24
MPC Actions: ['0', '0', '0', '0']
Temperatures following the MPC path:
[78.0, 78.0, 78.0, 78.0, 78.0]
Safety Constraints:
[[54.0, 86.0], [54.0, 86.0], [54.0, 86.0], [54.0, 86.0], [54.0, 86.0]]
Prices:
[0.26, 0.6, 0.6, 0.6, 0.6, 0.6, 0.6, 0.6, 0.6, 0.6, 0.6, 0.6, 0.6, 0.6, 0.6, 0.6, 0.6, 0.6, 0.6, 0.6, 0.6]
Occ Predictions:
[1, 1, 1, 1, 1]
Setpoints:
[[74.0, 78.0], [74.0, 78.0], [74.0, 78.0], [74.0, 78.0], [74.0, 78.0]]
Time needed to calculate the shortest path:
7.95762181282


2018-07-27 21:11:24
MPC Actions: ['0', '0', '0', '0']
Temperatures following the MPC path:
[77.93180357844, 77.95, 77.95, 77.95, 77.95]
Safety Constraints:
[[54.0, 86.0], [54.0, 86.0], [54.0, 86.0], [54.0, 86.0], [54.0, 86.0]]
Prices:
[0.6, 0.6, 0.6, 0.6, 0.6, 0.6, 0.6, 0.6, 0.6, 0.6, 0.6, 0.6, 0.6, 0.6, 0.6, 0.6, 0.6, 0.6, 0.6, 0.6, 0.6, 0.6, 0.6, 0.6, 0.6]
Occ Predictions:
[1, 1, 1, 1, 1]
Setpoints:
[[74.0, 78.0], [74.0, 78.0], [74.0, 78.0], [74.0, 78.0], [74.0, 78.0]]
Time needed to calculate the shortest path:
7.83889102936


2018-07-27 21:26:24
MPC Actions: ['0', '0', '0', '0']
Temperatures following the MPC path:
[77.88563562309776, 77.9, 77.9, 77.9, 77.9]
Safety Constraints:
[[54.0, 86.0], [54.0, 86.0], [54.0, 86.0], [54.0, 86.0], [54.0, 86.0]]
Prices:
[0.6, 0.6, 0.6, 0.6, 0.6, 0.6, 0.6, 0.6, 0.6, 0.6, 0.6, 0.6, 0.6, 0.6, 0.6, 0.6, 0.6, 0.6, 0.6, 0.6, 0.6, 0.6, 0.6, 0.6, 0.6]
Occ Predictions:
[1, 1, 1, 1, 1]
Setpoints:
[[74.0, 78.0], [74.0, 78.0], [74.0, 78.0], [74.0, 78.0], [74.0, 78.0]]
Time needed to calculate the shortest path:
9.13277697563


2018-07-27 21:41:24
MPC Actions: ['0', '0', '0', '0']
Temperatures following the MPC path:
[77.78352244635597, 77.80000000000001, 77.80000000000001, 77.80000000000001, 77.80000000000001]
Safety Constraints:
[[54.0, 86.0], [54.0, 86.0], [54.0, 86.0], [54.0, 86.0], [54.0, 86.0]]
Prices:
[0.6, 0.6, 0.6, 0.6, 0.6, 0.6, 0.6, 0.6, 0.6, 0.6, 0.6, 0.6, 0.6, 0.6, 0.6, 0.6, 0.6, 0.6, 0.6, 0.6, 0.6, 0.6, 0.6, 0.6, 0.6]
Occ Predictions:
[1, 1, 1, 1, 1]
Setpoints:
[[74.0, 78.0], [74.0, 78.0], [74.0, 78.0], [74.0, 78.0], [74.0, 78.0]]
Time needed to calculate the shortest path:
7.59209299088


2018-07-27 21:56:24
MPC Actions: ['0', '0', '0', '0']
Temperatures following the MPC path:
[77.92236438567296, 77.95, 77.95, 77.95, 77.95]
Safety Constraints:
[[54.0, 86.0], [54.0, 86.0], [54.0, 86.0], [54.0, 86.0], [54.0, 86.0]]
Prices:
[0.6, 0.6, 0.6, 0.6, 0.6, 0.6, 0.6, 0.6, 0.6, 0.6, 0.6, 0.6, 0.6, 0.6, 0.6, 0.6, 0.6, 0.6, 0.6, 0.6, 0.6, 0.6, 0.6, 0.6, 0.6]
Occ Predictions:
[1, 1, 1, 1, 1]
Setpoints:
[[74.0, 78.0], [74.0, 78.0], [74.0, 78.0], [74.0, 78.0], [74.0, 78.0]]
Time needed to calculate the shortest path:
7.84061002731


2018-07-27 21:14:09
MPC Actions: ['0', '0', '0', '0']
Temperatures following the MPC path:
[78.0, 78.0, 78.0, 78.0, 78.0]
Safety Constraints:
[[54.0, 86.0], [54.0, 86.0], [54.0, 86.0], [54.0, 86.0], [54.0, 86.0]]
Prices:
[0.6, 0.6, 0.6, 0.6, 0.6, 0.6, 0.6, 0.6, 0.6, 0.6, 0.6, 0.6, 0.6, 0.6, 0.6, 0.6, 0.6, 0.6, 0.6, 0.6, 0.6, 0.6, 0.6, 0.6, 0.6]
Occ Predictions:
[1, 1, 1, 1, 1]
Setpoints:
[[74.0, 78.0], [74.0, 78.0], [74.0, 78.0], [74.0, 78.0], [74.0, 78.0]]
Time needed to calculate the shortest path:
8.11154389381


2018-07-27 21:29:09
MPC Actions: ['0', '0', '0', '0']
Temperatures following the MPC path:
[77.97381813983597, 77.95, 77.95, 77.95, 77.95]
Safety Constraints:
[[54.0, 86.0], [54.0, 86.0], [54.0, 86.0], [54.0, 86.0], [54.0, 86.0]]
Prices:
[0.6, 0.6, 0.6, 0.6, 0.6, 0.6, 0.6, 0.6, 0.6, 0.6, 0.6, 0.6, 0.6, 0.6, 0.6, 0.6, 0.6, 0.6, 0.6, 0.6, 0.6, 0.6, 0.6, 0.6, 0.6]
Occ Predictions:
[1, 1, 1, 1, 1]
Setpoints:
[[74.0, 78.0], [74.0, 78.0], [74.0, 78.0], [74.0, 78.0], [74.0, 78.0]]
Time needed to calculate the shortest path:
6.93798899651


2018-07-27 21:44:09
MPC Actions: ['0', '0', '0', '0']
Temperatures following the MPC path:
[77.98793997874111, 78.0, 78.0, 78.0, 78.0]
Safety Constraints:
[[54.0, 86.0], [54.0, 86.0], [54.0, 86.0], [54.0, 86.0], [54.0, 86.0]]
Prices:
[0.6, 0.6, 0.6, 0.6, 0.6, 0.6, 0.6, 0.6, 0.6, 0.6, 0.6, 0.6, 0.6, 0.6, 0.6, 0.6, 0.6, 0.6, 0.6, 0.6, 0.6, 0.6, 0.6, 0.6, 0.6]
Occ Predictions:
[1, 1, 1, 1, 1]
Setpoints:
[[74.0, 78.0], [74.0, 78.0], [74.0, 78.0], [74.0, 78.0], [74.0, 78.0]]
Time needed to calculate the shortest path:
6.96998000145


2018-07-27 21:59:09
MPC Actions: ['0', '0', '0', '0']
Temperatures following the MPC path:
[77.80134462739107, 77.80000000000001, 77.80000000000001, 77.80000000000001, 77.80000000000001]
Safety Constraints:
[[54.0, 86.0], [54.0, 86.0], [54.0, 86.0], [54.0, 86.0], [54.0, 86.0]]
Prices:
[0.6, 0.6, 0.6, 0.6, 0.6, 0.6, 0.6, 0.6, 0.6, 0.6, 0.6, 0.6, 0.6, 0.6, 0.6, 0.6, 0.6, 0.6, 0.6, 0.6, 0.6, 0.6, 0.6, 0.6, 0.6]
Occ Predictions:
[1, 1, 1, 1, 1]
Setpoints:
[[74.0, 78.0], [74.0, 78.0], [74.0, 78.0], [74.0, 78.0], [74.0, 78.0]]
Time needed to calculate the shortest path:
9.2509829998


2018-07-27 22:14:09
MPC Actions: ['0', '0', '0', '0']
Temperatures following the MPC path:
[78.00808855307936, 78.0, 78.0, 78.0, 78.0]
Safety Constraints:
[[54.0, 86.0], [54.0, 86.0], [54.0, 86.0], [54.0, 86.0], [54.0, 86.0]]
Prices:
[0.6, 0.6, 0.6, 0.6, 0.6, 0.6, 0.6, 0.6, 0.6, 0.6, 0.6, 0.6, 0.6, 0.6, 0.6, 0.6, 0.6, 0.6, 0.6, 0.6, 0.6, 0.6, 0.6, 0.6, 0.6]
Occ Predictions:
[1, 1, 1, 1, 1]
Setpoints:
[[74.0, 78.0], [74.0, 78.0], [74.0, 78.0], [74.0, 78.0], [74.0, 78.0]]
Time needed to calculate the shortest path:
5.75696921349


2018-07-27 21:15:54
MPC Actions: ['0', '0', '0', '0']
Temperatures following the MPC path:
[78.0, 78.0, 78.0, 78.0, 78.0]
Safety Constraints:
[[54.0, 86.0], [54.0, 86.0], [54.0, 86.0], [54.0, 86.0], [54.0, 86.0]]
Prices:
[0.6, 0.6, 0.6, 0.6, 0.6, 0.6, 0.6, 0.6, 0.6, 0.6, 0.6, 0.6, 0.6, 0.6, 0.6, 0.6, 0.6, 0.6, 0.6, 0.6, 0.6, 0.6, 0.6, 0.6, 0.6]
Occ Predictions:
[1, 1, 1, 1, 1]
Setpoints:
[[74.0, 78.0], [74.0, 78.0], [74.0, 78.0], [74.0, 78.0], [74.0, 78.0]]
Time needed to calculate the shortest path:
8.20778799057


2018-07-27 21:30:54
MPC Actions: ['2', '0', '0', '0']
Temperatures following the MPC path:
[78.03336218066313, 78.0, 78.0, 78.0, 78.0]
Safety Constraints:
[[54.0, 86.0], [54.0, 86.0], [54.0, 86.0], [54.0, 86.0], [54.0, 86.0]]
Prices:
[0.6, 0.6, 0.6, 0.6, 0.6, 0.6, 0.6, 0.6, 0.6, 0.6, 0.6, 0.6, 0.6, 0.6, 0.6, 0.6, 0.6, 0.6, 0.6, 0.6, 0.6, 0.6, 0.6, 0.6, 0.6]
Occ Predictions:
[1, 1, 1, 1, 1]
Setpoints:
[[74.0, 78.0], [74.0, 78.0], [74.0, 78.0], [74.0, 78.0], [74.0, 78.0]]
Time needed to calculate the shortest path:
8.48806786537


2018-07-27 21:45:54
MPC Actions: ['0', '0', '0', '0']
Temperatures following the MPC path:
[77.79218349810871, 77.80000000000001, 77.80000000000001, 77.80000000000001, 77.80000000000001]
Safety Constraints:
[[54.0, 86.0], [54.0, 86.0], [54.0, 86.0], [54.0, 86.0], [54.0, 86.0]]
Prices:
[0.6, 0.6, 0.6, 0.6, 0.6, 0.6, 0.6, 0.6, 0.6, 0.6, 0.6, 0.6, 0.6, 0.6, 0.6, 0.6, 0.6, 0.6, 0.6, 0.6, 0.6, 0.6, 0.6, 0.6, 0.6]
Occ Predictions:
[1, 1, 1, 1, 1]
Setpoints:
[[74.0, 78.0], [74.0, 78.0], [74.0, 78.0], [74.0, 78.0], [74.0, 78.0]]
Time needed to calculate the shortest path:
10.88478899


2018-07-27 22:00:54
MPC Actions: ['0', '0', '0', '0']
Temperatures following the MPC path:
[77.88417062259646, 77.9, 77.9, 77.9, 77.9]
Safety Constraints:
[[54.0, 86.0], [54.0, 86.0], [54.0, 86.0], [54.0, 86.0], [54.0, 86.0]]
Prices:
[0.6, 0.6, 0.6, 0.6, 0.6, 0.6, 0.6, 0.6, 0.6, 0.6, 0.6, 0.6, 0.6, 0.6, 0.6, 0.6, 0.6, 0.6, 0.6, 0.6, 0.6, 0.6, 0.6, 0.6, 0.6]
Occ Predictions:
[1, 1, 1, 1, 1]
Setpoints:
[[74.0, 78.0], [74.0, 78.0], [74.0, 78.0], [74.0, 78.0], [74.0, 78.0]]
Time needed to calculate the shortest path:
6.0232489109


2018-07-27 22:15:54
MPC Actions: ['0', '0', '0', '0']
Temperatures following the MPC path:
[77.89111565438668, 77.9, 77.9, 77.9, 77.9]
Safety Constraints:
[[54.0, 86.0], [54.0, 86.0], [54.0, 86.0], [54.0, 86.0], [54.0, 86.0]]
Prices:
[0.6, 0.6, 0.6, 0.6, 0.6, 0.6, 0.6, 0.6, 0.6, 0.6, 0.6, 0.6, 0.6, 0.6, 0.6, 0.6, 0.6, 0.6, 0.6, 0.6, 0.6, 0.6, 0.6, 0.6, 0.6]
Occ Predictions:
[1, 1, 1, 1, 1]
Setpoints:
[[74.0, 78.0], [74.0, 78.0], [74.0, 78.0], [74.0, 78.0], [74.0, 78.0]]
Time needed to calculate the shortest path:
7.78605604172


2018-08-08 16:01:38
MPC Actions: ['0', '0', '0', '0']
Temperatures following the MPC path:
[75.0, 75.0, 75.0, 75.0, 75.0]
Safety Constraints:
[[54.0, 86.0], [54.0, 86.0], [54.0, 86.0], [54.0, 86.0], [54.0, 86.0]]
Prices:
[0.24, 0.24, 0.24, 0.24, 0.24]
Occ Predictions:
[1, 1, 1, 1, 1]
Setpoints:
[[74.0, 78.0], [74.0, 78.0], [74.0, 78.0], [74.0, 78.0], [74.0, 78.0]]
Time needed to calculate the shortest path:
4.47369194031


2018-08-08 16:16:38
MPC Actions: ['0', '0', '0', '0']
Temperatures following the MPC path:
[74.99685315454373, 75.0, 75.0, 75.0, 75.0]
Safety Constraints:
[[54.0, 86.0], [54.0, 86.0], [54.0, 86.0], [54.0, 86.0], [54.0, 86.0]]
Prices:
[0.24, 0.24, 0.24, 0.24, 0.24]
Occ Predictions:
[1, 1, 1, 1, 1]
Setpoints:
[[74.0, 78.0], [74.0, 78.0], [74.0, 78.0], [74.0, 78.0], [74.0, 78.0]]
Time needed to calculate the shortest path:
6.57418990135


2018-08-08 16:31:38
MPC Actions: ['0', '0', '0', '0']
Temperatures following the MPC path:
[75.13341058931616, 75.15, 75.15, 75.15, 75.15]
Safety Constraints:
[[54.0, 86.0], [54.0, 86.0], [54.0, 86.0], [54.0, 86.0], [54.0, 86.0]]
Prices:
[0.24, 0.24, 0.24, 0.24, 0.24]
Occ Predictions:
[1, 1, 1, 1, 1]
Setpoints:
[[74.0, 78.0], [74.0, 78.0], [74.0, 78.0], [74.0, 78.0], [74.0, 78.0]]
Time needed to calculate the shortest path:
7.94023013115


2018-08-08 16:46:38
MPC Actions: ['0', '0', '0', '0']
Temperatures following the MPC path:
[75.24943850630493, 75.25, 75.25, 75.25, 75.25]
Safety Constraints:
[[54.0, 86.0], [54.0, 86.0], [54.0, 86.0], [54.0, 86.0], [54.0, 86.0]]
Prices:
[0.24, 0.24, 0.24, 0.24, 0.24]
Occ Predictions:
[1, 1, 1, 1, 1]
Setpoints:
[[74.0, 78.0], [74.0, 78.0], [74.0, 78.0], [74.0, 78.0], [74.0, 78.0]]
Time needed to calculate the shortest path:
8.40974593163


2018-08-08 17:01:38
MPC Actions: ['0', '0', '0', '0']
Temperatures following the MPC path:
[75.64525096510009, 75.65, 75.65, 75.65, 75.65]
Safety Constraints:
[[54.0, 86.0], [54.0, 86.0], [54.0, 86.0], [54.0, 86.0], [54.0, 86.0]]
Prices:
[0.24, 0.24, 0.24, 0.24, 0.24]
Occ Predictions:
[1, 1, 1, 1, 1]
Setpoints:
[[74.0, 78.0], [74.0, 78.0], [74.0, 78.0], [74.0, 78.0], [74.0, 78.0]]
Time needed to calculate the shortest path:
8.50279808044


2018-08-08 16:37:18
MPC Actions: ['0', '0', '0', '0']
Temperatures following the MPC path:
[75.0, 75.0, 75.0, 75.0, 75.0]
Safety Constraints:
[[54.0, 86.0], [54.0, 86.0], [54.0, 86.0], [54.0, 86.0], [54.0, 86.0]]
Prices:
[0.24, 0.24, 0.24, 0.24, 0.24]
Occ Predictions:
                       0
2018-08-08 09:22:18  1.0
2018-08-08 09:37:18  0.8
2018-08-08 09:52:18  0.8
2018-08-08 10:07:18  0.8
2018-08-08 10:22:18  0.8
Setpoints:
[[74.0, 78.0], [74.0, 78.0], [74.0, 78.0], [74.0, 78.0], [74.0, 78.0]]
Time needed to calculate the shortest path:
5.90660595894
